
No compatibility mode selected!


Circuit: * sky130 6t sram bitcell — hold state verification

Doing analysis at TEMP = 27.000000 and TNOM = 27.000000


Initial Transient Solution
--------------------------

Node                                   Voltage
----                                   -------
q                                          1.8
qb                                           0
vdd                                        1.8
bl                                         1.8
wl                                           0
blb                                        1.8
vblb#branch                       -2.04621e-12
vbl#branch                           -1.81e-12
vwl#branch                                   0
vdd#branch                        -3.19918e-10


No. of Data Rows : 5008
              * sky130 6t sram bitcell — hold state verification
              Transient Analysis  Thu May  7 15:00:17  2026
--------------------------------------------------------------------------------
Index   time            v(q)            v(qb)           
--------------------------------------------------------------------------------
0	0.000000e+00	1.800000e+00	0.000000e+00	
1	1.000000e-14	1.800000e+00	9.501636e-10	
2	2.000000e-14	1.800000e+00	1.742717e-09	
3	4.000000e-14	1.800000e+00	3.181962e-09	
4	8.000000e-14	1.800000e+00	5.726361e-09	
5	1.600000e-13	1.800000e+00	1.055203e-08	
6	3.200000e-13	1.800000e+00	1.945713e-08	
7	6.400000e-13	1.800000e+00	3.470312e-08	
8	1.280000e-12	1.800000e+00	5.714966e-08	
9	2.280000e-12	1.800000e+00	7.788117e-08	
10	3.280000e-12	1.800000e+00	8.829622e-08	
11	4.280000e-12	1.800000e+00	9.357390e-08	
12	5.280000e-12	1.800000e+00	9.627496e-08	
13	6.280000e-12	1.800000e+00	9.769770e-08	
14	7.280000e-12	1.800000e+00	9.846877e-08	
15	8.280000e-12	1.800000e+00	9.892133e-08	
16	9.280000e-12	1.800000e+00	9.920154e-08	
17	1.028000e-11	1.800000e+00	9.940231e-08	
18	1.128000e-11	1.800000e+00	9.955061e-08	
19	1.228000e-11	1.800000e+00	9.967932e-08	
20	1.328000e-11	1.800000e+00	9.978604e-08	
21	1.428000e-11	1.800000e+00	9.988838e-08	
22	1.528000e-11	1.800000e+00	9.997694e-08	
23	1.628000e-11	1.800000e+00	1.000652e-07	
24	1.728000e-11	1.800000e+00	1.001423e-07	
25	1.828000e-11	1.800000e+00	1.002203e-07	
26	1.928000e-11	1.800000e+00	1.002884e-07	
27	2.028000e-11	1.800000e+00	1.003579e-07	
28	2.128000e-11	1.800000e+00	1.004182e-07	
29	2.228000e-11	1.800000e+00	1.004803e-07	
30	2.328000e-11	1.800000e+00	1.005337e-07	
31	2.428000e-11	1.800000e+00	1.005892e-07	
32	2.528000e-11	1.800000e+00	1.006366e-07	
33	2.628000e-11	1.800000e+00	1.006862e-07	
34	2.728000e-11	1.800000e+00	1.007282e-07	
35	2.828000e-11	1.800000e+00	1.007726e-07	
36	2.928000e-11	1.800000e+00	1.008178e-07	
37	3.028000e-11	1.800000e+00	1.008659e-07	
38	3.128000e-11	1.800000e+00	1.009010e-07	
39	3.228000e-11	1.800000e+00	1.009366e-07	
40	3.328000e-11	1.800000e+00	1.009640e-07	
41	3.428000e-11	1.800000e+00	1.009941e-07	
42	3.528000e-11	1.800000e+00	1.010175e-07	
43	3.628000e-11	1.800000e+00	1.010442e-07	
44	3.728000e-11	1.800000e+00	1.010647e-07	
45	3.828000e-11	1.800000e+00	1.010887e-07	
46	3.928000e-11	1.800000e+00	1.011069e-07	
47	4.028000e-11	1.800000e+00	1.011285e-07	
48	4.128000e-11	1.800000e+00	1.011446e-07	
49	4.228000e-11	1.800000e+00	1.011642e-07	
50	4.328000e-11	1.800000e+00	1.011785e-07	
51	4.428000e-11	1.800000e+00	1.011962e-07	
52	4.528000e-11	1.800000e+00	1.012089e-07	
53	4.628000e-11	1.800000e+00	1.012249e-07	
54	4.728000e-11	1.800000e+00	1.012362e-07	

Index   time            v(q)            v(qb)           
--------------------------------------------------------------------------------
55	4.828000e-11	1.800000e+00	1.012507e-07	
56	4.928000e-11	1.800000e+00	1.012606e-07	
57	5.028000e-11	1.800000e+00	1.012738e-07	
58	5.128000e-11	1.800000e+00	1.012825e-07	
59	5.228000e-11	1.800000e+00	1.012945e-07	
60	5.328000e-11	1.800000e+00	1.013022e-07	
61	5.428000e-11	1.800000e+00	1.013131e-07	
62	5.528000e-11	1.800000e+00	1.013199e-07	
63	5.628000e-11	1.800000e+00	1.013297e-07	
64	5.728000e-11	1.800000e+00	1.013357e-07	
65	5.828000e-11	1.800000e+00	1.013447e-07	
66	5.928000e-11	1.800000e+00	1.013499e-07	
67	6.028000e-11	1.800000e+00	1.013581e-07	
68	6.128000e-11	1.800000e+00	1.013627e-07	
69	6.228000e-11	1.800000e+00	1.013701e-07	
70	6.328000e-11	1.800000e+00	1.013741e-07	
71	6.428000e-11	1.800000e+00	1.013809e-07	
72	6.528000e-11	1.800000e+00	1.013843e-07	
73	6.628000e-11	1.800000e+00	1.013906e-07	
74	6.728000e-11	1.800000e+00	1.013935e-07	
75	6.828000e-11	1.800000e+00	1.013992e-07	
76	6.928000e-11	1.800000e+00	1.014018e-07	
77	7.028000e-11	1.800000e+00	1.014070e-07	
78	7.128000e-11	1.800000e+00	1.014092e-07	
79	7.228000e-11	1.800000e+00	1.014140e-07	
80	7.328000e-11	1.800000e+00	1.014159e-07	
81	7.428000e-11	1.800000e+00	1.014202e-07	
82	7.528000e-11	1.800000e+00	1.014218e-07	
83	7.628000e-11	1.800000e+00	1.014258e-07	
84	7.728000e-11	1.800000e+00	1.014272e-07	
85	7.828000e-11	1.800000e+00	1.014309e-07	
86	7.928000e-11	1.800000e+00	1.014320e-07	
87	8.028000e-11	1.800000e+00	1.014354e-07	
88	8.128000e-11	1.800000e+00	1.014363e-07	
89	8.228000e-11	1.800000e+00	1.014394e-07	
90	8.328000e-11	1.800000e+00	1.014401e-07	
91	8.428000e-11	1.800000e+00	1.014430e-07	
92	8.528000e-11	1.800000e+00	1.014436e-07	
93	8.628000e-11	1.800000e+00	1.014463e-07	
94	8.728000e-11	1.800000e+00	1.014467e-07	
95	8.828000e-11	1.800000e+00	1.014492e-07	
96	8.928000e-11	1.800000e+00	1.014495e-07	
97	9.028000e-11	1.800000e+00	1.014518e-07	
98	9.128000e-11	1.800000e+00	1.014520e-07	
99	9.228000e-11	1.800000e+00	1.014542e-07	
100	9.328000e-11	1.800000e+00	1.014543e-07	
101	9.428000e-11	1.800000e+00	1.014563e-07	
102	9.528000e-11	1.800000e+00	1.014563e-07	
103	9.628000e-11	1.800000e+00	1.014581e-07	
104	9.728000e-11	1.800000e+00	1.014581e-07	
105	9.828000e-11	1.800000e+00	1.014598e-07	
106	9.928000e-11	1.800000e+00	1.014597e-07	
107	1.002800e-10	1.800000e+00	1.014613e-07	
108	1.012800e-10	1.800000e+00	1.014612e-07	
109	1.022800e-10	1.800000e+00	1.014627e-07	
110	1.032800e-10	1.800000e+00	1.014625e-07	
111	1.042800e-10	1.800000e+00	1.014639e-07	
112	1.052800e-10	1.800000e+00	1.014637e-07	

Index   time            v(q)            v(qb)           
--------------------------------------------------------------------------------
113	1.062800e-10	1.800000e+00	1.014650e-07	
114	1.072800e-10	1.800000e+00	1.014647e-07	
115	1.082800e-10	1.800000e+00	1.014660e-07	
116	1.092800e-10	1.800000e+00	1.014657e-07	
117	1.102800e-10	1.800000e+00	1.014668e-07	
118	1.112800e-10	1.800000e+00	1.014665e-07	
119	1.122800e-10	1.800000e+00	1.014676e-07	
120	1.132800e-10	1.800000e+00	1.014673e-07	
121	1.142800e-10	1.800000e+00	1.014683e-07	
122	1.152800e-10	1.800000e+00	1.014680e-07	
123	1.162800e-10	1.800000e+00	1.014690e-07	
124	1.172800e-10	1.800000e+00	1.014686e-07	
125	1.182800e-10	1.800000e+00	1.014695e-07	
126	1.192800e-10	1.800000e+00	1.014691e-07	
127	1.202800e-10	1.800000e+00	1.014700e-07	
128	1.212800e-10	1.800000e+00	1.014696e-07	
129	1.222800e-10	1.800000e+00	1.014705e-07	
130	1.232800e-10	1.800000e+00	1.014701e-07	
131	1.242800e-10	1.800000e+00	1.014709e-07	
132	1.252800e-10	1.800000e+00	1.014705e-07	
133	1.262800e-10	1.800000e+00	1.014713e-07	
134	1.272800e-10	1.800000e+00	1.014708e-07	
135	1.282800e-10	1.800000e+00	1.014716e-07	
136	1.292800e-10	1.800000e+00	1.014712e-07	
137	1.302800e-10	1.800000e+00	1.014719e-07	
138	1.312800e-10	1.800000e+00	1.014715e-07	
139	1.322800e-10	1.800000e+00	1.014721e-07	
140	1.332800e-10	1.800000e+00	1.014717e-07	
141	1.342800e-10	1.800000e+00	1.014724e-07	
142	1.352800e-10	1.800000e+00	1.014719e-07	
143	1.362800e-10	1.800000e+00	1.014726e-07	
144	1.372800e-10	1.800000e+00	1.014722e-07	
145	1.382800e-10	1.800000e+00	1.014728e-07	
146	1.392800e-10	1.800000e+00	1.014724e-07	
147	1.402800e-10	1.800000e+00	1.014729e-07	
148	1.412800e-10	1.800000e+00	1.014725e-07	
149	1.422800e-10	1.800000e+00	1.014731e-07	
150	1.432800e-10	1.800000e+00	1.014727e-07	
151	1.442800e-10	1.800000e+00	1.014732e-07	
152	1.452800e-10	1.800000e+00	1.014728e-07	
153	1.462800e-10	1.800000e+00	1.014733e-07	
154	1.472800e-10	1.800000e+00	1.014729e-07	
155	1.482800e-10	1.800000e+00	1.014734e-07	
156	1.492800e-10	1.800000e+00	1.014731e-07	
157	1.502800e-10	1.800000e+00	1.014735e-07	
158	1.512800e-10	1.800000e+00	1.014732e-07	
159	1.522800e-10	1.800000e+00	1.014736e-07	
160	1.532800e-10	1.800000e+00	1.014732e-07	
161	1.542800e-10	1.800000e+00	1.014737e-07	
162	1.552800e-10	1.800000e+00	1.014733e-07	
163	1.562800e-10	1.800000e+00	1.014738e-07	
164	1.572800e-10	1.800000e+00	1.014734e-07	
165	1.582800e-10	1.800000e+00	1.014738e-07	
166	1.592800e-10	1.800000e+00	1.014735e-07	
167	1.602800e-10	1.800000e+00	1.014739e-07	
168	1.612800e-10	1.800000e+00	1.014735e-07	
169	1.622800e-10	1.800000e+00	1.014739e-07	
170	1.632800e-10	1.800000e+00	1.014736e-07	

Index   time            v(q)            v(qb)           
--------------------------------------------------------------------------------
171	1.642800e-10	1.800000e+00	1.014740e-07	
172	1.652800e-10	1.800000e+00	1.014736e-07	
173	1.662800e-10	1.800000e+00	1.014740e-07	
174	1.672800e-10	1.800000e+00	1.014737e-07	
175	1.682800e-10	1.800000e+00	1.014740e-07	
176	1.692800e-10	1.800000e+00	1.014737e-07	
177	1.702800e-10	1.800000e+00	1.014741e-07	
178	1.712800e-10	1.800000e+00	1.014738e-07	
179	1.722800e-10	1.800000e+00	1.014741e-07	
180	1.732800e-10	1.800000e+00	1.014738e-07	
181	1.742800e-10	1.800000e+00	1.014741e-07	
182	1.752800e-10	1.800000e+00	1.014738e-07	
183	1.762800e-10	1.800000e+00	1.014741e-07	
184	1.772800e-10	1.800000e+00	1.014738e-07	
185	1.782800e-10	1.800000e+00	1.014741e-07	
186	1.792800e-10	1.800000e+00	1.014739e-07	
187	1.802800e-10	1.800000e+00	1.014742e-07	
188	1.812800e-10	1.800000e+00	1.014739e-07	
189	1.822800e-10	1.800000e+00	1.014742e-07	
190	1.832800e-10	1.800000e+00	1.014739e-07	
191	1.842800e-10	1.800000e+00	1.014742e-07	
192	1.852800e-10	1.800000e+00	1.014739e-07	
193	1.862800e-10	1.800000e+00	1.014742e-07	
194	1.872800e-10	1.800000e+00	1.014739e-07	
195	1.882800e-10	1.800000e+00	1.014742e-07	
196	1.892800e-10	1.800000e+00	1.014740e-07	
197	1.902800e-10	1.800000e+00	1.014742e-07	
198	1.912800e-10	1.800000e+00	1.014740e-07	
199	1.922800e-10	1.800000e+00	1.014742e-07	
200	1.932800e-10	1.800000e+00	1.014740e-07	
201	1.942800e-10	1.800000e+00	1.014742e-07	
202	1.952800e-10	1.800000e+00	1.014740e-07	
203	1.962800e-10	1.800000e+00	1.014742e-07	
204	1.972800e-10	1.800000e+00	1.014740e-07	
205	1.982800e-10	1.800000e+00	1.014742e-07	
206	1.992800e-10	1.800000e+00	1.014740e-07	
207	2.002800e-10	1.800000e+00	1.014742e-07	
208	2.012800e-10	1.800000e+00	1.014740e-07	
209	2.022800e-10	1.800000e+00	1.014742e-07	
210	2.032800e-10	1.800000e+00	1.014740e-07	
211	2.042800e-10	1.800000e+00	1.014742e-07	
212	2.052800e-10	1.800000e+00	1.014740e-07	
213	2.062800e-10	1.800000e+00	1.014742e-07	
214	2.072800e-10	1.800000e+00	1.014741e-07	
215	2.082800e-10	1.800000e+00	1.014743e-07	
216	2.092800e-10	1.800000e+00	1.014741e-07	
217	2.102800e-10	1.800000e+00	1.014743e-07	
218	2.112800e-10	1.800000e+00	1.014741e-07	
219	2.122800e-10	1.800000e+00	1.014743e-07	
220	2.132800e-10	1.800000e+00	1.014741e-07	
221	2.142800e-10	1.800000e+00	1.014743e-07	
222	2.152800e-10	1.800000e+00	1.014741e-07	
223	2.162800e-10	1.800000e+00	1.014743e-07	
224	2.172800e-10	1.800000e+00	1.014741e-07	
225	2.182800e-10	1.800000e+00	1.014743e-07	
226	2.192800e-10	1.800000e+00	1.014741e-07	
227	2.202800e-10	1.800000e+00	1.014743e-07	
228	2.212800e-10	1.800000e+00	1.014741e-07	

Index   time            v(q)            v(qb)           
--------------------------------------------------------------------------------
229	2.222800e-10	1.800000e+00	1.014743e-07	
230	2.232800e-10	1.800000e+00	1.014741e-07	
231	2.242800e-10	1.800000e+00	1.014743e-07	
232	2.252800e-10	1.800000e+00	1.014741e-07	
233	2.262800e-10	1.800000e+00	1.014743e-07	
234	2.272800e-10	1.800000e+00	1.014741e-07	
235	2.282800e-10	1.800000e+00	1.014743e-07	
236	2.292800e-10	1.800000e+00	1.014741e-07	
237	2.302800e-10	1.800000e+00	1.014743e-07	
238	2.312800e-10	1.800000e+00	1.014741e-07	
239	2.322800e-10	1.800000e+00	1.014743e-07	
240	2.332800e-10	1.800000e+00	1.014741e-07	
241	2.342800e-10	1.800000e+00	1.014743e-07	
242	2.352800e-10	1.800000e+00	1.014741e-07	
243	2.362800e-10	1.800000e+00	1.014743e-07	
244	2.372800e-10	1.800000e+00	1.014741e-07	
245	2.382800e-10	1.800000e+00	1.014743e-07	
246	2.392800e-10	1.800000e+00	1.014741e-07	
247	2.402800e-10	1.800000e+00	1.014742e-07	
248	2.412800e-10	1.800000e+00	1.014741e-07	
249	2.422800e-10	1.800000e+00	1.014742e-07	
250	2.432800e-10	1.800000e+00	1.014741e-07	
251	2.442800e-10	1.800000e+00	1.014742e-07	
252	2.452800e-10	1.800000e+00	1.014741e-07	
253	2.462800e-10	1.800000e+00	1.014742e-07	
254	2.472800e-10	1.800000e+00	1.014741e-07	
255	2.482800e-10	1.800000e+00	1.014742e-07	
256	2.492800e-10	1.800000e+00	1.014741e-07	
257	2.502800e-10	1.800000e+00	1.014742e-07	
258	2.512800e-10	1.800000e+00	1.014741e-07	
259	2.522800e-10	1.800000e+00	1.014742e-07	
260	2.532800e-10	1.800000e+00	1.014741e-07	
261	2.542800e-10	1.800000e+00	1.014742e-07	
262	2.552800e-10	1.800000e+00	1.014741e-07	
263	2.562800e-10	1.800000e+00	1.014742e-07	
264	2.572800e-10	1.800000e+00	1.014741e-07	
265	2.582800e-10	1.800000e+00	1.014742e-07	
266	2.592800e-10	1.800000e+00	1.014741e-07	
267	2.602800e-10	1.800000e+00	1.014742e-07	
268	2.612800e-10	1.800000e+00	1.014741e-07	
269	2.622800e-10	1.800000e+00	1.014742e-07	
270	2.632800e-10	1.800000e+00	1.014741e-07	
271	2.642800e-10	1.800000e+00	1.014742e-07	
272	2.652800e-10	1.800000e+00	1.014741e-07	
273	2.662800e-10	1.800000e+00	1.014742e-07	
274	2.672800e-10	1.800000e+00	1.014741e-07	
275	2.682800e-10	1.800000e+00	1.014742e-07	
276	2.692800e-10	1.800000e+00	1.014741e-07	
277	2.702800e-10	1.800000e+00	1.014742e-07	
278	2.712800e-10	1.800000e+00	1.014741e-07	
279	2.722800e-10	1.800000e+00	1.014742e-07	
280	2.732800e-10	1.800000e+00	1.014741e-07	
281	2.742800e-10	1.800000e+00	1.014742e-07	
282	2.752800e-10	1.800000e+00	1.014741e-07	
283	2.762800e-10	1.800000e+00	1.014742e-07	
284	2.772800e-10	1.800000e+00	1.014742e-07	
285	2.782800e-10	1.800000e+00	1.014742e-07	
286	2.792800e-10	1.800000e+00	1.014742e-07	

Index   time            v(q)            v(qb)           
--------------------------------------------------------------------------------
287	2.802800e-10	1.800000e+00	1.014742e-07	
288	2.812800e-10	1.800000e+00	1.014742e-07	
289	2.822800e-10	1.800000e+00	1.014742e-07	
290	2.832800e-10	1.800000e+00	1.014742e-07	
291	2.842800e-10	1.800000e+00	1.014742e-07	
292	2.852800e-10	1.800000e+00	1.014742e-07	
293	2.862800e-10	1.800000e+00	1.014742e-07	
294	2.872800e-10	1.800000e+00	1.014742e-07	
295	2.882800e-10	1.800000e+00	1.014742e-07	
296	2.892800e-10	1.800000e+00	1.014742e-07	
297	2.902800e-10	1.800000e+00	1.014742e-07	
298	2.912800e-10	1.800000e+00	1.014742e-07	
299	2.922800e-10	1.800000e+00	1.014742e-07	
300	2.932800e-10	1.800000e+00	1.014742e-07	
301	2.942800e-10	1.800000e+00	1.014742e-07	
302	2.952800e-10	1.800000e+00	1.014742e-07	
303	2.962800e-10	1.800000e+00	1.014742e-07	
304	2.972800e-10	1.800000e+00	1.014742e-07	
305	2.982800e-10	1.800000e+00	1.014742e-07	
306	2.992800e-10	1.800000e+00	1.014742e-07	
307	3.002800e-10	1.800000e+00	1.014742e-07	
308	3.012800e-10	1.800000e+00	1.014742e-07	
309	3.022800e-10	1.800000e+00	1.014742e-07	
310	3.032800e-10	1.800000e+00	1.014742e-07	
311	3.042800e-10	1.800000e+00	1.014742e-07	
312	3.052800e-10	1.800000e+00	1.014742e-07	
313	3.062800e-10	1.800000e+00	1.014742e-07	
314	3.072800e-10	1.800000e+00	1.014742e-07	
315	3.082800e-10	1.800000e+00	1.014742e-07	
316	3.092800e-10	1.800000e+00	1.014742e-07	
317	3.102800e-10	1.800000e+00	1.014742e-07	
318	3.112800e-10	1.800000e+00	1.014742e-07	
319	3.122800e-10	1.800000e+00	1.014742e-07	
320	3.132800e-10	1.800000e+00	1.014742e-07	
321	3.142800e-10	1.800000e+00	1.014742e-07	
322	3.152800e-10	1.800000e+00	1.014742e-07	
323	3.162800e-10	1.800000e+00	1.014742e-07	
324	3.172800e-10	1.800000e+00	1.014742e-07	
325	3.182800e-10	1.800000e+00	1.014742e-07	
326	3.192800e-10	1.800000e+00	1.014742e-07	
327	3.202800e-10	1.800000e+00	1.014742e-07	
328	3.212800e-10	1.800000e+00	1.014742e-07	
329	3.222800e-10	1.800000e+00	1.014742e-07	
330	3.232800e-10	1.800000e+00	1.014742e-07	
331	3.242800e-10	1.800000e+00	1.014742e-07	
332	3.252800e-10	1.800000e+00	1.014742e-07	
333	3.262800e-10	1.800000e+00	1.014742e-07	
334	3.272800e-10	1.800000e+00	1.014742e-07	
335	3.282800e-10	1.800000e+00	1.014742e-07	
336	3.292800e-10	1.800000e+00	1.014742e-07	
337	3.302800e-10	1.800000e+00	1.014742e-07	
338	3.312800e-10	1.800000e+00	1.014742e-07	
339	3.322800e-10	1.800000e+00	1.014742e-07	
340	3.332800e-10	1.800000e+00	1.014742e-07	
341	3.342800e-10	1.800000e+00	1.014742e-07	
342	3.352800e-10	1.800000e+00	1.014742e-07	
343	3.362800e-10	1.800000e+00	1.014742e-07	
344	3.372800e-10	1.800000e+00	1.014742e-07	

Index   time            v(q)            v(qb)           
--------------------------------------------------------------------------------
345	3.382800e-10	1.800000e+00	1.014742e-07	
346	3.392800e-10	1.800000e+00	1.014742e-07	
347	3.402800e-10	1.800000e+00	1.014742e-07	
348	3.412800e-10	1.800000e+00	1.014742e-07	
349	3.422800e-10	1.800000e+00	1.014742e-07	
350	3.432800e-10	1.800000e+00	1.014742e-07	
351	3.442800e-10	1.800000e+00	1.014742e-07	
352	3.452800e-10	1.800000e+00	1.014742e-07	
353	3.462800e-10	1.800000e+00	1.014742e-07	
354	3.472800e-10	1.800000e+00	1.014742e-07	
355	3.482800e-10	1.800000e+00	1.014742e-07	
356	3.492800e-10	1.800000e+00	1.014742e-07	
357	3.502800e-10	1.800000e+00	1.014742e-07	
358	3.512800e-10	1.800000e+00	1.014742e-07	
359	3.522800e-10	1.800000e+00	1.014742e-07	
360	3.532800e-10	1.800000e+00	1.014742e-07	
361	3.542800e-10	1.800000e+00	1.014742e-07	
362	3.552800e-10	1.800000e+00	1.014742e-07	
363	3.562800e-10	1.800000e+00	1.014742e-07	
364	3.572800e-10	1.800000e+00	1.014742e-07	
365	3.582800e-10	1.800000e+00	1.014742e-07	
366	3.592800e-10	1.800000e+00	1.014742e-07	
367	3.602800e-10	1.800000e+00	1.014742e-07	
368	3.612800e-10	1.800000e+00	1.014742e-07	
369	3.622800e-10	1.800000e+00	1.014742e-07	
370	3.632800e-10	1.800000e+00	1.014742e-07	
371	3.642800e-10	1.800000e+00	1.014742e-07	
372	3.652800e-10	1.800000e+00	1.014742e-07	
373	3.662800e-10	1.800000e+00	1.014742e-07	
374	3.672800e-10	1.800000e+00	1.014742e-07	
375	3.682800e-10	1.800000e+00	1.014742e-07	
376	3.692800e-10	1.800000e+00	1.014742e-07	
377	3.702800e-10	1.800000e+00	1.014742e-07	
378	3.712800e-10	1.800000e+00	1.014742e-07	
379	3.722800e-10	1.800000e+00	1.014742e-07	
380	3.732800e-10	1.800000e+00	1.014742e-07	
381	3.742800e-10	1.800000e+00	1.014742e-07	
382	3.752800e-10	1.800000e+00	1.014742e-07	
383	3.762800e-10	1.800000e+00	1.014742e-07	
384	3.772800e-10	1.800000e+00	1.014742e-07	
385	3.782800e-10	1.800000e+00	1.014742e-07	
386	3.792800e-10	1.800000e+00	1.014742e-07	
387	3.802800e-10	1.800000e+00	1.014742e-07	
388	3.812800e-10	1.800000e+00	1.014742e-07	
389	3.822800e-10	1.800000e+00	1.014742e-07	
390	3.832800e-10	1.800000e+00	1.014742e-07	
391	3.842800e-10	1.800000e+00	1.014742e-07	
392	3.852800e-10	1.800000e+00	1.014742e-07	
393	3.862800e-10	1.800000e+00	1.014742e-07	
394	3.872800e-10	1.800000e+00	1.014742e-07	
395	3.882800e-10	1.800000e+00	1.014742e-07	
396	3.892800e-10	1.800000e+00	1.014742e-07	
397	3.902800e-10	1.800000e+00	1.014742e-07	
398	3.912800e-10	1.800000e+00	1.014742e-07	
399	3.922800e-10	1.800000e+00	1.014742e-07	
400	3.932800e-10	1.800000e+00	1.014742e-07	
401	3.942800e-10	1.800000e+00	1.014742e-07	
402	3.952800e-10	1.800000e+00	1.014742e-07	

Index   time            v(q)            v(qb)           
--------------------------------------------------------------------------------
403	3.962800e-10	1.800000e+00	1.014742e-07	
404	3.972800e-10	1.800000e+00	1.014742e-07	
405	3.982800e-10	1.800000e+00	1.014742e-07	
406	3.992800e-10	1.800000e+00	1.014742e-07	
407	4.002800e-10	1.800000e+00	1.014742e-07	
408	4.012800e-10	1.800000e+00	1.014742e-07	
409	4.022800e-10	1.800000e+00	1.014742e-07	
410	4.032800e-10	1.800000e+00	1.014742e-07	
411	4.042800e-10	1.800000e+00	1.014742e-07	
412	4.052800e-10	1.800000e+00	1.014742e-07	
413	4.062800e-10	1.800000e+00	1.014742e-07	
414	4.072800e-10	1.800000e+00	1.014742e-07	
415	4.082800e-10	1.800000e+00	1.014742e-07	
416	4.092800e-10	1.800000e+00	1.014742e-07	
417	4.102800e-10	1.800000e+00	1.014742e-07	
418	4.112800e-10	1.800000e+00	1.014742e-07	
419	4.122800e-10	1.800000e+00	1.014742e-07	
420	4.132800e-10	1.800000e+00	1.014742e-07	
421	4.142800e-10	1.800000e+00	1.014742e-07	
422	4.152800e-10	1.800000e+00	1.014742e-07	
423	4.162800e-10	1.800000e+00	1.014742e-07	
424	4.172800e-10	1.800000e+00	1.014742e-07	
425	4.182800e-10	1.800000e+00	1.014742e-07	
426	4.192800e-10	1.800000e+00	1.014742e-07	
427	4.202800e-10	1.800000e+00	1.014742e-07	
428	4.212800e-10	1.800000e+00	1.014742e-07	
429	4.222800e-10	1.800000e+00	1.014742e-07	
430	4.232800e-10	1.800000e+00	1.014742e-07	
431	4.242800e-10	1.800000e+00	1.014742e-07	
432	4.252800e-10	1.800000e+00	1.014742e-07	
433	4.262800e-10	1.800000e+00	1.014742e-07	
434	4.272800e-10	1.800000e+00	1.014742e-07	
435	4.282800e-10	1.800000e+00	1.014742e-07	
436	4.292800e-10	1.800000e+00	1.014742e-07	
437	4.302800e-10	1.800000e+00	1.014742e-07	
438	4.312800e-10	1.800000e+00	1.014742e-07	
439	4.322800e-10	1.800000e+00	1.014742e-07	
440	4.332800e-10	1.800000e+00	1.014742e-07	
441	4.342800e-10	1.800000e+00	1.014742e-07	
442	4.352800e-10	1.800000e+00	1.014742e-07	
443	4.362800e-10	1.800000e+00	1.014742e-07	
444	4.372800e-10	1.800000e+00	1.014742e-07	
445	4.382800e-10	1.800000e+00	1.014742e-07	
446	4.392800e-10	1.800000e+00	1.014742e-07	
447	4.402800e-10	1.800000e+00	1.014742e-07	
448	4.412800e-10	1.800000e+00	1.014742e-07	
449	4.422800e-10	1.800000e+00	1.014742e-07	
450	4.432800e-10	1.800000e+00	1.014742e-07	
451	4.442800e-10	1.800000e+00	1.014742e-07	
452	4.452800e-10	1.800000e+00	1.014742e-07	
453	4.462800e-10	1.800000e+00	1.014742e-07	
454	4.472800e-10	1.800000e+00	1.014742e-07	
455	4.482800e-10	1.800000e+00	1.014742e-07	
456	4.492800e-10	1.800000e+00	1.014742e-07	
457	4.502800e-10	1.800000e+00	1.014742e-07	
458	4.512800e-10	1.800000e+00	1.014742e-07	
459	4.522800e-10	1.800000e+00	1.014742e-07	
460	4.532800e-10	1.800000e+00	1.014742e-07	

Index   time            v(q)            v(qb)           
--------------------------------------------------------------------------------
461	4.542800e-10	1.800000e+00	1.014742e-07	
462	4.552800e-10	1.800000e+00	1.014742e-07	
463	4.562800e-10	1.800000e+00	1.014742e-07	
464	4.572800e-10	1.800000e+00	1.014742e-07	
465	4.582800e-10	1.800000e+00	1.014742e-07	
466	4.592800e-10	1.800000e+00	1.014742e-07	
467	4.602800e-10	1.800000e+00	1.014742e-07	
468	4.612800e-10	1.800000e+00	1.014742e-07	
469	4.622800e-10	1.800000e+00	1.014742e-07	
470	4.632800e-10	1.800000e+00	1.014742e-07	
471	4.642800e-10	1.800000e+00	1.014742e-07	
472	4.652800e-10	1.800000e+00	1.014742e-07	
473	4.662800e-10	1.800000e+00	1.014742e-07	
474	4.672800e-10	1.800000e+00	1.014742e-07	
475	4.682800e-10	1.800000e+00	1.014742e-07	
476	4.692800e-10	1.800000e+00	1.014742e-07	
477	4.702800e-10	1.800000e+00	1.014742e-07	
478	4.712800e-10	1.800000e+00	1.014742e-07	
479	4.722800e-10	1.800000e+00	1.014742e-07	
480	4.732800e-10	1.800000e+00	1.014742e-07	
481	4.742800e-10	1.800000e+00	1.014742e-07	
482	4.752800e-10	1.800000e+00	1.014742e-07	
483	4.762800e-10	1.800000e+00	1.014742e-07	
484	4.772800e-10	1.800000e+00	1.014742e-07	
485	4.782800e-10	1.800000e+00	1.014742e-07	
486	4.792800e-10	1.800000e+00	1.014742e-07	
487	4.802800e-10	1.800000e+00	1.014742e-07	
488	4.812800e-10	1.800000e+00	1.014742e-07	
489	4.822800e-10	1.800000e+00	1.014742e-07	
490	4.832800e-10	1.800000e+00	1.014742e-07	
491	4.842800e-10	1.800000e+00	1.014742e-07	
492	4.852800e-10	1.800000e+00	1.014742e-07	
493	4.862800e-10	1.800000e+00	1.014742e-07	
494	4.872800e-10	1.800000e+00	1.014742e-07	
495	4.882800e-10	1.800000e+00	1.014742e-07	
496	4.892800e-10	1.800000e+00	1.014742e-07	
497	4.902800e-10	1.800000e+00	1.014742e-07	
498	4.912800e-10	1.800000e+00	1.014742e-07	
499	4.922800e-10	1.800000e+00	1.014742e-07	
500	4.932800e-10	1.800000e+00	1.014742e-07	
501	4.942800e-10	1.800000e+00	1.014742e-07	
502	4.952800e-10	1.800000e+00	1.014742e-07	
503	4.962800e-10	1.800000e+00	1.014742e-07	
504	4.972800e-10	1.800000e+00	1.014742e-07	
505	4.982800e-10	1.800000e+00	1.014742e-07	
506	4.992800e-10	1.800000e+00	1.014742e-07	
507	5.002800e-10	1.800000e+00	1.014742e-07	
508	5.012800e-10	1.800000e+00	1.014742e-07	
509	5.022800e-10	1.800000e+00	1.014742e-07	
510	5.032800e-10	1.800000e+00	1.014742e-07	
511	5.042800e-10	1.800000e+00	1.014742e-07	
512	5.052800e-10	1.800000e+00	1.014742e-07	
513	5.062800e-10	1.800000e+00	1.014742e-07	
514	5.072800e-10	1.800000e+00	1.014742e-07	
515	5.082800e-10	1.800000e+00	1.014742e-07	
516	5.092800e-10	1.800000e+00	1.014742e-07	
517	5.102800e-10	1.800000e+00	1.014742e-07	
518	5.112800e-10	1.800000e+00	1.014742e-07	

Index   time            v(q)            v(qb)           
--------------------------------------------------------------------------------
519	5.122800e-10	1.800000e+00	1.014742e-07	
520	5.132800e-10	1.800000e+00	1.014742e-07	
521	5.142800e-10	1.800000e+00	1.014742e-07	
522	5.152800e-10	1.800000e+00	1.014742e-07	
523	5.162800e-10	1.800000e+00	1.014742e-07	
524	5.172800e-10	1.800000e+00	1.014742e-07	
525	5.182800e-10	1.800000e+00	1.014742e-07	
526	5.192800e-10	1.800000e+00	1.014742e-07	
527	5.202800e-10	1.800000e+00	1.014742e-07	
528	5.212800e-10	1.800000e+00	1.014742e-07	
529	5.222800e-10	1.800000e+00	1.014742e-07	
530	5.232800e-10	1.800000e+00	1.014742e-07	
531	5.242800e-10	1.800000e+00	1.014742e-07	
532	5.252800e-10	1.800000e+00	1.014742e-07	
533	5.262800e-10	1.800000e+00	1.014742e-07	
534	5.272800e-10	1.800000e+00	1.014742e-07	
535	5.282800e-10	1.800000e+00	1.014742e-07	
536	5.292800e-10	1.800000e+00	1.014742e-07	
537	5.302800e-10	1.800000e+00	1.014742e-07	
538	5.312800e-10	1.800000e+00	1.014742e-07	
539	5.322800e-10	1.800000e+00	1.014742e-07	
540	5.332800e-10	1.800000e+00	1.014742e-07	
541	5.342800e-10	1.800000e+00	1.014742e-07	
542	5.352800e-10	1.800000e+00	1.014742e-07	
543	5.362800e-10	1.800000e+00	1.014742e-07	
544	5.372800e-10	1.800000e+00	1.014742e-07	
545	5.382800e-10	1.800000e+00	1.014742e-07	
546	5.392800e-10	1.800000e+00	1.014742e-07	
547	5.402800e-10	1.800000e+00	1.014742e-07	
548	5.412800e-10	1.800000e+00	1.014742e-07	
549	5.422800e-10	1.800000e+00	1.014742e-07	
550	5.432800e-10	1.800000e+00	1.014742e-07	
551	5.442800e-10	1.800000e+00	1.014742e-07	
552	5.452800e-10	1.800000e+00	1.014742e-07	
553	5.462800e-10	1.800000e+00	1.014742e-07	
554	5.472800e-10	1.800000e+00	1.014742e-07	
555	5.482800e-10	1.800000e+00	1.014742e-07	
556	5.492800e-10	1.800000e+00	1.014742e-07	
557	5.502800e-10	1.800000e+00	1.014742e-07	
558	5.512800e-10	1.800000e+00	1.014742e-07	
559	5.522800e-10	1.800000e+00	1.014742e-07	
560	5.532800e-10	1.800000e+00	1.014742e-07	
561	5.542800e-10	1.800000e+00	1.014742e-07	
562	5.552800e-10	1.800000e+00	1.014742e-07	
563	5.562800e-10	1.800000e+00	1.014742e-07	
564	5.572800e-10	1.800000e+00	1.014742e-07	
565	5.582800e-10	1.800000e+00	1.014742e-07	
566	5.592800e-10	1.800000e+00	1.014742e-07	
567	5.602800e-10	1.800000e+00	1.014742e-07	
568	5.612800e-10	1.800000e+00	1.014742e-07	
569	5.622800e-10	1.800000e+00	1.014742e-07	
570	5.632800e-10	1.800000e+00	1.014742e-07	
571	5.642800e-10	1.800000e+00	1.014742e-07	
572	5.652800e-10	1.800000e+00	1.014742e-07	
573	5.662800e-10	1.800000e+00	1.014742e-07	
574	5.672800e-10	1.800000e+00	1.014742e-07	
575	5.682800e-10	1.800000e+00	1.014742e-07	
576	5.692800e-10	1.800000e+00	1.014742e-07	

Index   time            v(q)            v(qb)           
--------------------------------------------------------------------------------
577	5.702800e-10	1.800000e+00	1.014742e-07	
578	5.712800e-10	1.800000e+00	1.014742e-07	
579	5.722800e-10	1.800000e+00	1.014742e-07	
580	5.732800e-10	1.800000e+00	1.014742e-07	
581	5.742800e-10	1.800000e+00	1.014742e-07	
582	5.752800e-10	1.800000e+00	1.014742e-07	
583	5.762800e-10	1.800000e+00	1.014742e-07	
584	5.772800e-10	1.800000e+00	1.014742e-07	
585	5.782800e-10	1.800000e+00	1.014742e-07	
586	5.792800e-10	1.800000e+00	1.014742e-07	
587	5.802800e-10	1.800000e+00	1.014742e-07	
588	5.812800e-10	1.800000e+00	1.014742e-07	
589	5.822800e-10	1.800000e+00	1.014742e-07	
590	5.832800e-10	1.800000e+00	1.014742e-07	
591	5.842800e-10	1.800000e+00	1.014742e-07	
592	5.852800e-10	1.800000e+00	1.014742e-07	
593	5.862800e-10	1.800000e+00	1.014742e-07	
594	5.872800e-10	1.800000e+00	1.014742e-07	
595	5.882800e-10	1.800000e+00	1.014742e-07	
596	5.892800e-10	1.800000e+00	1.014742e-07	
597	5.902800e-10	1.800000e+00	1.014742e-07	
598	5.912800e-10	1.800000e+00	1.014742e-07	
599	5.922800e-10	1.800000e+00	1.014742e-07	
600	5.932800e-10	1.800000e+00	1.014742e-07	
601	5.942800e-10	1.800000e+00	1.014742e-07	
602	5.952800e-10	1.800000e+00	1.014742e-07	
603	5.962800e-10	1.800000e+00	1.014742e-07	
604	5.972800e-10	1.800000e+00	1.014742e-07	
605	5.982800e-10	1.800000e+00	1.014742e-07	
606	5.992800e-10	1.800000e+00	1.014742e-07	
607	6.002800e-10	1.800000e+00	1.014742e-07	
608	6.012800e-10	1.800000e+00	1.014742e-07	
609	6.022800e-10	1.800000e+00	1.014742e-07	
610	6.032800e-10	1.800000e+00	1.014742e-07	
611	6.042800e-10	1.800000e+00	1.014742e-07	
612	6.052800e-10	1.800000e+00	1.014742e-07	
613	6.062800e-10	1.800000e+00	1.014742e-07	
614	6.072800e-10	1.800000e+00	1.014742e-07	
615	6.082800e-10	1.800000e+00	1.014742e-07	
616	6.092800e-10	1.800000e+00	1.014742e-07	
617	6.102800e-10	1.800000e+00	1.014742e-07	
618	6.112800e-10	1.800000e+00	1.014742e-07	
619	6.122800e-10	1.800000e+00	1.014742e-07	
620	6.132800e-10	1.800000e+00	1.014742e-07	
621	6.142800e-10	1.800000e+00	1.014742e-07	
622	6.152800e-10	1.800000e+00	1.014742e-07	
623	6.162800e-10	1.800000e+00	1.014742e-07	
624	6.172800e-10	1.800000e+00	1.014742e-07	
625	6.182800e-10	1.800000e+00	1.014742e-07	
626	6.192800e-10	1.800000e+00	1.014742e-07	
627	6.202800e-10	1.800000e+00	1.014742e-07	
628	6.212800e-10	1.800000e+00	1.014742e-07	
629	6.222800e-10	1.800000e+00	1.014742e-07	
630	6.232800e-10	1.800000e+00	1.014742e-07	
631	6.242800e-10	1.800000e+00	1.014742e-07	
632	6.252800e-10	1.800000e+00	1.014742e-07	
633	6.262800e-10	1.800000e+00	1.014742e-07	
634	6.272800e-10	1.800000e+00	1.014742e-07	

Index   time            v(q)            v(qb)           
--------------------------------------------------------------------------------
635	6.282800e-10	1.800000e+00	1.014742e-07	
636	6.292800e-10	1.800000e+00	1.014742e-07	
637	6.302800e-10	1.800000e+00	1.014742e-07	
638	6.312800e-10	1.800000e+00	1.014742e-07	
639	6.322800e-10	1.800000e+00	1.014742e-07	
640	6.332800e-10	1.800000e+00	1.014742e-07	
641	6.342800e-10	1.800000e+00	1.014742e-07	
642	6.352800e-10	1.800000e+00	1.014742e-07	
643	6.362800e-10	1.800000e+00	1.014742e-07	
644	6.372800e-10	1.800000e+00	1.014742e-07	
645	6.382800e-10	1.800000e+00	1.014742e-07	
646	6.392800e-10	1.800000e+00	1.014742e-07	
647	6.402800e-10	1.800000e+00	1.014742e-07	
648	6.412800e-10	1.800000e+00	1.014742e-07	
649	6.422800e-10	1.800000e+00	1.014742e-07	
650	6.432800e-10	1.800000e+00	1.014742e-07	
651	6.442800e-10	1.800000e+00	1.014742e-07	
652	6.452800e-10	1.800000e+00	1.014742e-07	
653	6.462800e-10	1.800000e+00	1.014742e-07	
654	6.472800e-10	1.800000e+00	1.014742e-07	
655	6.482800e-10	1.800000e+00	1.014742e-07	
656	6.492800e-10	1.800000e+00	1.014742e-07	
657	6.502800e-10	1.800000e+00	1.014742e-07	
658	6.512800e-10	1.800000e+00	1.014742e-07	
659	6.522800e-10	1.800000e+00	1.014742e-07	
660	6.532800e-10	1.800000e+00	1.014742e-07	
661	6.542800e-10	1.800000e+00	1.014742e-07	
662	6.552800e-10	1.800000e+00	1.014742e-07	
663	6.562800e-10	1.800000e+00	1.014742e-07	
664	6.572800e-10	1.800000e+00	1.014742e-07	
665	6.582800e-10	1.800000e+00	1.014742e-07	
666	6.592800e-10	1.800000e+00	1.014742e-07	
667	6.602800e-10	1.800000e+00	1.014742e-07	
668	6.612800e-10	1.800000e+00	1.014742e-07	
669	6.622800e-10	1.800000e+00	1.014742e-07	
670	6.632800e-10	1.800000e+00	1.014742e-07	
671	6.642800e-10	1.800000e+00	1.014742e-07	
672	6.652800e-10	1.800000e+00	1.014742e-07	
673	6.662800e-10	1.800000e+00	1.014742e-07	
674	6.672800e-10	1.800000e+00	1.014742e-07	
675	6.682800e-10	1.800000e+00	1.014742e-07	
676	6.692800e-10	1.800000e+00	1.014742e-07	
677	6.702800e-10	1.800000e+00	1.014742e-07	
678	6.712800e-10	1.800000e+00	1.014742e-07	
679	6.722800e-10	1.800000e+00	1.014742e-07	
680	6.732800e-10	1.800000e+00	1.014742e-07	
681	6.742800e-10	1.800000e+00	1.014742e-07	
682	6.752800e-10	1.800000e+00	1.014742e-07	
683	6.762800e-10	1.800000e+00	1.014742e-07	
684	6.772800e-10	1.800000e+00	1.014742e-07	
685	6.782800e-10	1.800000e+00	1.014742e-07	
686	6.792800e-10	1.800000e+00	1.014742e-07	
687	6.802800e-10	1.800000e+00	1.014742e-07	
688	6.812800e-10	1.800000e+00	1.014742e-07	
689	6.822800e-10	1.800000e+00	1.014742e-07	
690	6.832800e-10	1.800000e+00	1.014742e-07	
691	6.842800e-10	1.800000e+00	1.014742e-07	
692	6.852800e-10	1.800000e+00	1.014742e-07	

Index   time            v(q)            v(qb)           
--------------------------------------------------------------------------------
693	6.862800e-10	1.800000e+00	1.014742e-07	
694	6.872800e-10	1.800000e+00	1.014742e-07	
695	6.882800e-10	1.800000e+00	1.014742e-07	
696	6.892800e-10	1.800000e+00	1.014742e-07	
697	6.902800e-10	1.800000e+00	1.014742e-07	
698	6.912800e-10	1.800000e+00	1.014742e-07	
699	6.922800e-10	1.800000e+00	1.014742e-07	
700	6.932800e-10	1.800000e+00	1.014742e-07	
701	6.942800e-10	1.800000e+00	1.014742e-07	
702	6.952800e-10	1.800000e+00	1.014742e-07	
703	6.962800e-10	1.800000e+00	1.014742e-07	
704	6.972800e-10	1.800000e+00	1.014742e-07	
705	6.982800e-10	1.800000e+00	1.014742e-07	
706	6.992800e-10	1.800000e+00	1.014742e-07	
707	7.002800e-10	1.800000e+00	1.014742e-07	
708	7.012800e-10	1.800000e+00	1.014742e-07	
709	7.022800e-10	1.800000e+00	1.014742e-07	
710	7.032800e-10	1.800000e+00	1.014742e-07	
711	7.042800e-10	1.800000e+00	1.014742e-07	
712	7.052800e-10	1.800000e+00	1.014742e-07	
713	7.062800e-10	1.800000e+00	1.014742e-07	
714	7.072800e-10	1.800000e+00	1.014742e-07	
715	7.082800e-10	1.800000e+00	1.014742e-07	
716	7.092800e-10	1.800000e+00	1.014742e-07	
717	7.102800e-10	1.800000e+00	1.014742e-07	
718	7.112800e-10	1.800000e+00	1.014742e-07	
719	7.122800e-10	1.800000e+00	1.014742e-07	
720	7.132800e-10	1.800000e+00	1.014742e-07	
721	7.142800e-10	1.800000e+00	1.014742e-07	
722	7.152800e-10	1.800000e+00	1.014742e-07	
723	7.162800e-10	1.800000e+00	1.014742e-07	
724	7.172800e-10	1.800000e+00	1.014742e-07	
725	7.182800e-10	1.800000e+00	1.014742e-07	
726	7.192800e-10	1.800000e+00	1.014742e-07	
727	7.202800e-10	1.800000e+00	1.014742e-07	
728	7.212800e-10	1.800000e+00	1.014742e-07	
729	7.222800e-10	1.800000e+00	1.014742e-07	
730	7.232800e-10	1.800000e+00	1.014742e-07	
731	7.242800e-10	1.800000e+00	1.014742e-07	
732	7.252800e-10	1.800000e+00	1.014742e-07	
733	7.262800e-10	1.800000e+00	1.014742e-07	
734	7.272800e-10	1.800000e+00	1.014742e-07	
735	7.282800e-10	1.800000e+00	1.014742e-07	
736	7.292800e-10	1.800000e+00	1.014742e-07	
737	7.302800e-10	1.800000e+00	1.014742e-07	
738	7.312800e-10	1.800000e+00	1.014742e-07	
739	7.322800e-10	1.800000e+00	1.014742e-07	
740	7.332800e-10	1.800000e+00	1.014742e-07	
741	7.342800e-10	1.800000e+00	1.014742e-07	
742	7.352800e-10	1.800000e+00	1.014742e-07	
743	7.362800e-10	1.800000e+00	1.014742e-07	
744	7.372800e-10	1.800000e+00	1.014742e-07	
745	7.382800e-10	1.800000e+00	1.014742e-07	
746	7.392800e-10	1.800000e+00	1.014742e-07	
747	7.402800e-10	1.800000e+00	1.014742e-07	
748	7.412800e-10	1.800000e+00	1.014742e-07	
749	7.422800e-10	1.800000e+00	1.014742e-07	
750	7.432800e-10	1.800000e+00	1.014742e-07	

Index   time            v(q)            v(qb)           
--------------------------------------------------------------------------------
751	7.442800e-10	1.800000e+00	1.014742e-07	
752	7.452800e-10	1.800000e+00	1.014742e-07	
753	7.462800e-10	1.800000e+00	1.014742e-07	
754	7.472800e-10	1.800000e+00	1.014742e-07	
755	7.482800e-10	1.800000e+00	1.014742e-07	
756	7.492800e-10	1.800000e+00	1.014742e-07	
757	7.502800e-10	1.800000e+00	1.014742e-07	
758	7.512800e-10	1.800000e+00	1.014742e-07	
759	7.522800e-10	1.800000e+00	1.014742e-07	
760	7.532800e-10	1.800000e+00	1.014742e-07	
761	7.542800e-10	1.800000e+00	1.014742e-07	
762	7.552800e-10	1.800000e+00	1.014742e-07	
763	7.562800e-10	1.800000e+00	1.014742e-07	
764	7.572800e-10	1.800000e+00	1.014742e-07	
765	7.582800e-10	1.800000e+00	1.014742e-07	
766	7.592800e-10	1.800000e+00	1.014742e-07	
767	7.602800e-10	1.800000e+00	1.014742e-07	
768	7.612800e-10	1.800000e+00	1.014742e-07	
769	7.622800e-10	1.800000e+00	1.014742e-07	
770	7.632800e-10	1.800000e+00	1.014742e-07	
771	7.642800e-10	1.800000e+00	1.014742e-07	
772	7.652800e-10	1.800000e+00	1.014742e-07	
773	7.662800e-10	1.800000e+00	1.014742e-07	
774	7.672800e-10	1.800000e+00	1.014742e-07	
775	7.682800e-10	1.800000e+00	1.014742e-07	
776	7.692800e-10	1.800000e+00	1.014742e-07	
777	7.702800e-10	1.800000e+00	1.014742e-07	
778	7.712800e-10	1.800000e+00	1.014742e-07	
779	7.722800e-10	1.800000e+00	1.014742e-07	
780	7.732800e-10	1.800000e+00	1.014742e-07	
781	7.742800e-10	1.800000e+00	1.014742e-07	
782	7.752800e-10	1.800000e+00	1.014742e-07	
783	7.762800e-10	1.800000e+00	1.014742e-07	
784	7.772800e-10	1.800000e+00	1.014742e-07	
785	7.782800e-10	1.800000e+00	1.014742e-07	
786	7.792800e-10	1.800000e+00	1.014742e-07	
787	7.802800e-10	1.800000e+00	1.014742e-07	
788	7.812800e-10	1.800000e+00	1.014742e-07	
789	7.822800e-10	1.800000e+00	1.014742e-07	
790	7.832800e-10	1.800000e+00	1.014742e-07	
791	7.842800e-10	1.800000e+00	1.014742e-07	
792	7.852800e-10	1.800000e+00	1.014742e-07	
793	7.862800e-10	1.800000e+00	1.014742e-07	
794	7.872800e-10	1.800000e+00	1.014742e-07	
795	7.882800e-10	1.800000e+00	1.014742e-07	
796	7.892800e-10	1.800000e+00	1.014742e-07	
797	7.902800e-10	1.800000e+00	1.014742e-07	
798	7.912800e-10	1.800000e+00	1.014742e-07	
799	7.922800e-10	1.800000e+00	1.014742e-07	
800	7.932800e-10	1.800000e+00	1.014742e-07	
801	7.942800e-10	1.800000e+00	1.014742e-07	
802	7.952800e-10	1.800000e+00	1.014742e-07	
803	7.962800e-10	1.800000e+00	1.014742e-07	
804	7.972800e-10	1.800000e+00	1.014742e-07	
805	7.982800e-10	1.800000e+00	1.014742e-07	
806	7.992800e-10	1.800000e+00	1.014742e-07	
807	8.002800e-10	1.800000e+00	1.014742e-07	
808	8.012800e-10	1.800000e+00	1.014742e-07	

Index   time            v(q)            v(qb)           
--------------------------------------------------------------------------------
809	8.022800e-10	1.800000e+00	1.014742e-07	
810	8.032800e-10	1.800000e+00	1.014742e-07	
811	8.042800e-10	1.800000e+00	1.014742e-07	
812	8.052800e-10	1.800000e+00	1.014742e-07	
813	8.062800e-10	1.800000e+00	1.014742e-07	
814	8.072800e-10	1.800000e+00	1.014742e-07	
815	8.082800e-10	1.800000e+00	1.014742e-07	
816	8.092800e-10	1.800000e+00	1.014742e-07	
817	8.102800e-10	1.800000e+00	1.014742e-07	
818	8.112800e-10	1.800000e+00	1.014742e-07	
819	8.122800e-10	1.800000e+00	1.014742e-07	
820	8.132800e-10	1.800000e+00	1.014742e-07	
821	8.142800e-10	1.800000e+00	1.014742e-07	
822	8.152800e-10	1.800000e+00	1.014742e-07	
823	8.162800e-10	1.800000e+00	1.014742e-07	
824	8.172800e-10	1.800000e+00	1.014742e-07	
825	8.182800e-10	1.800000e+00	1.014742e-07	
826	8.192800e-10	1.800000e+00	1.014742e-07	
827	8.202800e-10	1.800000e+00	1.014742e-07	
828	8.212800e-10	1.800000e+00	1.014742e-07	
829	8.222800e-10	1.800000e+00	1.014742e-07	
830	8.232800e-10	1.800000e+00	1.014742e-07	
831	8.242800e-10	1.800000e+00	1.014742e-07	
832	8.252800e-10	1.800000e+00	1.014742e-07	
833	8.262800e-10	1.800000e+00	1.014742e-07	
834	8.272800e-10	1.800000e+00	1.014742e-07	
835	8.282800e-10	1.800000e+00	1.014742e-07	
836	8.292800e-10	1.800000e+00	1.014742e-07	
837	8.302800e-10	1.800000e+00	1.014742e-07	
838	8.312800e-10	1.800000e+00	1.014742e-07	
839	8.322800e-10	1.800000e+00	1.014742e-07	
840	8.332800e-10	1.800000e+00	1.014742e-07	
841	8.342800e-10	1.800000e+00	1.014742e-07	
842	8.352800e-10	1.800000e+00	1.014742e-07	
843	8.362800e-10	1.800000e+00	1.014742e-07	
844	8.372800e-10	1.800000e+00	1.014742e-07	
845	8.382800e-10	1.800000e+00	1.014742e-07	
846	8.392800e-10	1.800000e+00	1.014742e-07	
847	8.402800e-10	1.800000e+00	1.014742e-07	
848	8.412800e-10	1.800000e+00	1.014742e-07	
849	8.422800e-10	1.800000e+00	1.014742e-07	
850	8.432800e-10	1.800000e+00	1.014742e-07	
851	8.442800e-10	1.800000e+00	1.014742e-07	
852	8.452800e-10	1.800000e+00	1.014742e-07	
853	8.462800e-10	1.800000e+00	1.014742e-07	
854	8.472800e-10	1.800000e+00	1.014742e-07	
855	8.482800e-10	1.800000e+00	1.014742e-07	
856	8.492800e-10	1.800000e+00	1.014742e-07	
857	8.502800e-10	1.800000e+00	1.014742e-07	
858	8.512800e-10	1.800000e+00	1.014742e-07	
859	8.522800e-10	1.800000e+00	1.014742e-07	
860	8.532800e-10	1.800000e+00	1.014742e-07	
861	8.542800e-10	1.800000e+00	1.014742e-07	
862	8.552800e-10	1.800000e+00	1.014742e-07	
863	8.562800e-10	1.800000e+00	1.014742e-07	
864	8.572800e-10	1.800000e+00	1.014742e-07	
865	8.582800e-10	1.800000e+00	1.014742e-07	
866	8.592800e-10	1.800000e+00	1.014742e-07	

Index   time            v(q)            v(qb)           
--------------------------------------------------------------------------------
867	8.602800e-10	1.800000e+00	1.014742e-07	
868	8.612800e-10	1.800000e+00	1.014742e-07	
869	8.622800e-10	1.800000e+00	1.014742e-07	
870	8.632800e-10	1.800000e+00	1.014742e-07	
871	8.642800e-10	1.800000e+00	1.014742e-07	
872	8.652800e-10	1.800000e+00	1.014742e-07	
873	8.662800e-10	1.800000e+00	1.014742e-07	
874	8.672800e-10	1.800000e+00	1.014742e-07	
875	8.682800e-10	1.800000e+00	1.014742e-07	
876	8.692800e-10	1.800000e+00	1.014742e-07	
877	8.702800e-10	1.800000e+00	1.014742e-07	
878	8.712800e-10	1.800000e+00	1.014742e-07	
879	8.722800e-10	1.800000e+00	1.014742e-07	
880	8.732800e-10	1.800000e+00	1.014742e-07	
881	8.742800e-10	1.800000e+00	1.014742e-07	
882	8.752800e-10	1.800000e+00	1.014742e-07	
883	8.762800e-10	1.800000e+00	1.014742e-07	
884	8.772800e-10	1.800000e+00	1.014742e-07	
885	8.782800e-10	1.800000e+00	1.014742e-07	
886	8.792800e-10	1.800000e+00	1.014742e-07	
887	8.802800e-10	1.800000e+00	1.014742e-07	
888	8.812800e-10	1.800000e+00	1.014742e-07	
889	8.822800e-10	1.800000e+00	1.014742e-07	
890	8.832800e-10	1.800000e+00	1.014742e-07	
891	8.842800e-10	1.800000e+00	1.014742e-07	
892	8.852800e-10	1.800000e+00	1.014742e-07	
893	8.862800e-10	1.800000e+00	1.014742e-07	
894	8.872800e-10	1.800000e+00	1.014742e-07	
895	8.882800e-10	1.800000e+00	1.014742e-07	
896	8.892800e-10	1.800000e+00	1.014742e-07	
897	8.902800e-10	1.800000e+00	1.014742e-07	
898	8.912800e-10	1.800000e+00	1.014742e-07	
899	8.922800e-10	1.800000e+00	1.014742e-07	
900	8.932800e-10	1.800000e+00	1.014742e-07	
901	8.942800e-10	1.800000e+00	1.014742e-07	
902	8.952800e-10	1.800000e+00	1.014742e-07	
903	8.962800e-10	1.800000e+00	1.014742e-07	
904	8.972800e-10	1.800000e+00	1.014742e-07	
905	8.982800e-10	1.800000e+00	1.014742e-07	
906	8.992800e-10	1.800000e+00	1.014742e-07	
907	9.002800e-10	1.800000e+00	1.014742e-07	
908	9.012800e-10	1.800000e+00	1.014742e-07	
909	9.022800e-10	1.800000e+00	1.014742e-07	
910	9.032800e-10	1.800000e+00	1.014742e-07	
911	9.042800e-10	1.800000e+00	1.014742e-07	
912	9.052800e-10	1.800000e+00	1.014742e-07	
913	9.062800e-10	1.800000e+00	1.014742e-07	
914	9.072800e-10	1.800000e+00	1.014742e-07	
915	9.082800e-10	1.800000e+00	1.014742e-07	
916	9.092800e-10	1.800000e+00	1.014742e-07	
917	9.102800e-10	1.800000e+00	1.014742e-07	
918	9.112800e-10	1.800000e+00	1.014742e-07	
919	9.122800e-10	1.800000e+00	1.014742e-07	
920	9.132800e-10	1.800000e+00	1.014742e-07	
921	9.142800e-10	1.800000e+00	1.014742e-07	
922	9.152800e-10	1.800000e+00	1.014742e-07	
923	9.162800e-10	1.800000e+00	1.014742e-07	
924	9.172800e-10	1.800000e+00	1.014742e-07	

Index   time            v(q)            v(qb)           
--------------------------------------------------------------------------------
925	9.182800e-10	1.800000e+00	1.014742e-07	
926	9.192800e-10	1.800000e+00	1.014742e-07	
927	9.202800e-10	1.800000e+00	1.014742e-07	
928	9.212800e-10	1.800000e+00	1.014742e-07	
929	9.222800e-10	1.800000e+00	1.014742e-07	
930	9.232800e-10	1.800000e+00	1.014742e-07	
931	9.242800e-10	1.800000e+00	1.014742e-07	
932	9.252800e-10	1.800000e+00	1.014742e-07	
933	9.262800e-10	1.800000e+00	1.014742e-07	
934	9.272800e-10	1.800000e+00	1.014742e-07	
935	9.282800e-10	1.800000e+00	1.014742e-07	
936	9.292800e-10	1.800000e+00	1.014742e-07	
937	9.302800e-10	1.800000e+00	1.014742e-07	
938	9.312800e-10	1.800000e+00	1.014742e-07	
939	9.322800e-10	1.800000e+00	1.014742e-07	
940	9.332800e-10	1.800000e+00	1.014742e-07	
941	9.342800e-10	1.800000e+00	1.014742e-07	
942	9.352800e-10	1.800000e+00	1.014742e-07	
943	9.362800e-10	1.800000e+00	1.014742e-07	
944	9.372800e-10	1.800000e+00	1.014742e-07	
945	9.382800e-10	1.800000e+00	1.014742e-07	
946	9.392800e-10	1.800000e+00	1.014742e-07	
947	9.402800e-10	1.800000e+00	1.014742e-07	
948	9.412800e-10	1.800000e+00	1.014742e-07	
949	9.422800e-10	1.800000e+00	1.014742e-07	
950	9.432800e-10	1.800000e+00	1.014742e-07	
951	9.442800e-10	1.800000e+00	1.014742e-07	
952	9.452800e-10	1.800000e+00	1.014742e-07	
953	9.462800e-10	1.800000e+00	1.014742e-07	
954	9.472800e-10	1.800000e+00	1.014742e-07	
955	9.482800e-10	1.800000e+00	1.014742e-07	
956	9.492800e-10	1.800000e+00	1.014742e-07	
957	9.502800e-10	1.800000e+00	1.014742e-07	
958	9.512800e-10	1.800000e+00	1.014742e-07	
959	9.522800e-10	1.800000e+00	1.014742e-07	
960	9.532800e-10	1.800000e+00	1.014742e-07	
961	9.542800e-10	1.800000e+00	1.014742e-07	
962	9.552800e-10	1.800000e+00	1.014742e-07	
963	9.562800e-10	1.800000e+00	1.014742e-07	
964	9.572800e-10	1.800000e+00	1.014742e-07	
965	9.582800e-10	1.800000e+00	1.014742e-07	
966	9.592800e-10	1.800000e+00	1.014742e-07	
967	9.602800e-10	1.800000e+00	1.014742e-07	
968	9.612800e-10	1.800000e+00	1.014742e-07	
969	9.622800e-10	1.800000e+00	1.014742e-07	
970	9.632800e-10	1.800000e+00	1.014742e-07	
971	9.642800e-10	1.800000e+00	1.014742e-07	
972	9.652800e-10	1.800000e+00	1.014742e-07	
973	9.662800e-10	1.800000e+00	1.014742e-07	
974	9.672800e-10	1.800000e+00	1.014742e-07	
975	9.682800e-10	1.800000e+00	1.014742e-07	
976	9.692800e-10	1.800000e+00	1.014742e-07	
977	9.702800e-10	1.800000e+00	1.014742e-07	
978	9.712800e-10	1.800000e+00	1.014742e-07	
979	9.722800e-10	1.800000e+00	1.014742e-07	
980	9.732800e-10	1.800000e+00	1.014742e-07	
981	9.742800e-10	1.800000e+00	1.014742e-07	
982	9.752800e-10	1.800000e+00	1.014742e-07	

Index   time            v(q)            v(qb)           
--------------------------------------------------------------------------------
983	9.762800e-10	1.800000e+00	1.014742e-07	
984	9.772800e-10	1.800000e+00	1.014742e-07	
985	9.782800e-10	1.800000e+00	1.014742e-07	
986	9.792800e-10	1.800000e+00	1.014742e-07	
987	9.802800e-10	1.800000e+00	1.014742e-07	
988	9.812800e-10	1.800000e+00	1.014742e-07	
989	9.822800e-10	1.800000e+00	1.014742e-07	
990	9.832800e-10	1.800000e+00	1.014742e-07	
991	9.842800e-10	1.800000e+00	1.014742e-07	
992	9.852800e-10	1.800000e+00	1.014742e-07	
993	9.862800e-10	1.800000e+00	1.014742e-07	
994	9.872800e-10	1.800000e+00	1.014742e-07	
995	9.882800e-10	1.800000e+00	1.014742e-07	
996	9.892800e-10	1.800000e+00	1.014742e-07	
997	9.902800e-10	1.800000e+00	1.014742e-07	
998	9.912800e-10	1.800000e+00	1.014742e-07	
999	9.922800e-10	1.800000e+00	1.014742e-07	
1000	9.932800e-10	1.800000e+00	1.014742e-07	
1001	9.942800e-10	1.800000e+00	1.014742e-07	
1002	9.952800e-10	1.800000e+00	1.014742e-07	
1003	9.962800e-10	1.800000e+00	1.014742e-07	
1004	9.972800e-10	1.800000e+00	1.014742e-07	
1005	9.982800e-10	1.800000e+00	1.014742e-07	
1006	9.992800e-10	1.800000e+00	1.014742e-07	
1007	1.000280e-09	1.800000e+00	1.014742e-07	
1008	1.001280e-09	1.800000e+00	1.014742e-07	
1009	1.002280e-09	1.800000e+00	1.014742e-07	
1010	1.003280e-09	1.800000e+00	1.014742e-07	
1011	1.004280e-09	1.800000e+00	1.014742e-07	
1012	1.005280e-09	1.800000e+00	1.014742e-07	
1013	1.006280e-09	1.800000e+00	1.014742e-07	
1014	1.007280e-09	1.800000e+00	1.014742e-07	
1015	1.008280e-09	1.800000e+00	1.014742e-07	
1016	1.009280e-09	1.800000e+00	1.014742e-07	
1017	1.010280e-09	1.800000e+00	1.014742e-07	
1018	1.011280e-09	1.800000e+00	1.014742e-07	
1019	1.012280e-09	1.800000e+00	1.014742e-07	
1020	1.013280e-09	1.800000e+00	1.014742e-07	
1021	1.014280e-09	1.800000e+00	1.014742e-07	
1022	1.015280e-09	1.800000e+00	1.014742e-07	
1023	1.016280e-09	1.800000e+00	1.014742e-07	
1024	1.017280e-09	1.800000e+00	1.014742e-07	
1025	1.018280e-09	1.800000e+00	1.014742e-07	
1026	1.019280e-09	1.800000e+00	1.014742e-07	
1027	1.020280e-09	1.800000e+00	1.014742e-07	
1028	1.021280e-09	1.800000e+00	1.014742e-07	
1029	1.022280e-09	1.800000e+00	1.014742e-07	
1030	1.023280e-09	1.800000e+00	1.014742e-07	
1031	1.024280e-09	1.800000e+00	1.014742e-07	
1032	1.025280e-09	1.800000e+00	1.014742e-07	
1033	1.026280e-09	1.800000e+00	1.014742e-07	
1034	1.027280e-09	1.800000e+00	1.014742e-07	
1035	1.028280e-09	1.800000e+00	1.014742e-07	
1036	1.029280e-09	1.800000e+00	1.014742e-07	
1037	1.030280e-09	1.800000e+00	1.014742e-07	
1038	1.031280e-09	1.800000e+00	1.014742e-07	
1039	1.032280e-09	1.800000e+00	1.014742e-07	
1040	1.033280e-09	1.800000e+00	1.014742e-07	

Index   time            v(q)            v(qb)           
--------------------------------------------------------------------------------
1041	1.034280e-09	1.800000e+00	1.014742e-07	
1042	1.035280e-09	1.800000e+00	1.014742e-07	
1043	1.036280e-09	1.800000e+00	1.014742e-07	
1044	1.037280e-09	1.800000e+00	1.014742e-07	
1045	1.038280e-09	1.800000e+00	1.014742e-07	
1046	1.039280e-09	1.800000e+00	1.014742e-07	
1047	1.040280e-09	1.800000e+00	1.014742e-07	
1048	1.041280e-09	1.800000e+00	1.014742e-07	
1049	1.042280e-09	1.800000e+00	1.014742e-07	
1050	1.043280e-09	1.800000e+00	1.014742e-07	
1051	1.044280e-09	1.800000e+00	1.014742e-07	
1052	1.045280e-09	1.800000e+00	1.014742e-07	
1053	1.046280e-09	1.800000e+00	1.014742e-07	
1054	1.047280e-09	1.800000e+00	1.014742e-07	
1055	1.048280e-09	1.800000e+00	1.014742e-07	
1056	1.049280e-09	1.800000e+00	1.014742e-07	
1057	1.050280e-09	1.800000e+00	1.014742e-07	
1058	1.051280e-09	1.800000e+00	1.014742e-07	
1059	1.052280e-09	1.800000e+00	1.014742e-07	
1060	1.053280e-09	1.800000e+00	1.014742e-07	
1061	1.054280e-09	1.800000e+00	1.014742e-07	
1062	1.055280e-09	1.800000e+00	1.014742e-07	
1063	1.056280e-09	1.800000e+00	1.014742e-07	
1064	1.057280e-09	1.800000e+00	1.014742e-07	
1065	1.058280e-09	1.800000e+00	1.014742e-07	
1066	1.059280e-09	1.800000e+00	1.014742e-07	
1067	1.060280e-09	1.800000e+00	1.014742e-07	
1068	1.061280e-09	1.800000e+00	1.014742e-07	
1069	1.062280e-09	1.800000e+00	1.014742e-07	
1070	1.063280e-09	1.800000e+00	1.014742e-07	
1071	1.064280e-09	1.800000e+00	1.014742e-07	
1072	1.065280e-09	1.800000e+00	1.014742e-07	
1073	1.066280e-09	1.800000e+00	1.014742e-07	
1074	1.067280e-09	1.800000e+00	1.014742e-07	
1075	1.068280e-09	1.800000e+00	1.014742e-07	
1076	1.069280e-09	1.800000e+00	1.014742e-07	
1077	1.070280e-09	1.800000e+00	1.014742e-07	
1078	1.071280e-09	1.800000e+00	1.014742e-07	
1079	1.072280e-09	1.800000e+00	1.014742e-07	
1080	1.073280e-09	1.800000e+00	1.014742e-07	
1081	1.074280e-09	1.800000e+00	1.014742e-07	
1082	1.075280e-09	1.800000e+00	1.014742e-07	
1083	1.076280e-09	1.800000e+00	1.014742e-07	
1084	1.077280e-09	1.800000e+00	1.014742e-07	
1085	1.078280e-09	1.800000e+00	1.014742e-07	
1086	1.079280e-09	1.800000e+00	1.014742e-07	
1087	1.080280e-09	1.800000e+00	1.014742e-07	
1088	1.081280e-09	1.800000e+00	1.014742e-07	
1089	1.082280e-09	1.800000e+00	1.014742e-07	
1090	1.083280e-09	1.800000e+00	1.014742e-07	
1091	1.084280e-09	1.800000e+00	1.014742e-07	
1092	1.085280e-09	1.800000e+00	1.014742e-07	
1093	1.086280e-09	1.800000e+00	1.014742e-07	
1094	1.087280e-09	1.800000e+00	1.014742e-07	
1095	1.088280e-09	1.800000e+00	1.014742e-07	
1096	1.089280e-09	1.800000e+00	1.014742e-07	
1097	1.090280e-09	1.800000e+00	1.014742e-07	
1098	1.091280e-09	1.800000e+00	1.014742e-07	

Index   time            v(q)            v(qb)           
--------------------------------------------------------------------------------
1099	1.092280e-09	1.800000e+00	1.014742e-07	
1100	1.093280e-09	1.800000e+00	1.014742e-07	
1101	1.094280e-09	1.800000e+00	1.014742e-07	
1102	1.095280e-09	1.800000e+00	1.014742e-07	
1103	1.096280e-09	1.800000e+00	1.014742e-07	
1104	1.097280e-09	1.800000e+00	1.014742e-07	
1105	1.098280e-09	1.800000e+00	1.014742e-07	
1106	1.099280e-09	1.800000e+00	1.014742e-07	
1107	1.100280e-09	1.800000e+00	1.014742e-07	
1108	1.101280e-09	1.800000e+00	1.014742e-07	
1109	1.102280e-09	1.800000e+00	1.014742e-07	
1110	1.103280e-09	1.800000e+00	1.014742e-07	
1111	1.104280e-09	1.800000e+00	1.014742e-07	
1112	1.105280e-09	1.800000e+00	1.014742e-07	
1113	1.106280e-09	1.800000e+00	1.014742e-07	
1114	1.107280e-09	1.800000e+00	1.014742e-07	
1115	1.108280e-09	1.800000e+00	1.014742e-07	
1116	1.109280e-09	1.800000e+00	1.014742e-07	
1117	1.110280e-09	1.800000e+00	1.014742e-07	
1118	1.111280e-09	1.800000e+00	1.014742e-07	
1119	1.112280e-09	1.800000e+00	1.014742e-07	
1120	1.113280e-09	1.800000e+00	1.014742e-07	
1121	1.114280e-09	1.800000e+00	1.014742e-07	
1122	1.115280e-09	1.800000e+00	1.014742e-07	
1123	1.116280e-09	1.800000e+00	1.014742e-07	
1124	1.117280e-09	1.800000e+00	1.014742e-07	
1125	1.118280e-09	1.800000e+00	1.014742e-07	
1126	1.119280e-09	1.800000e+00	1.014742e-07	
1127	1.120280e-09	1.800000e+00	1.014742e-07	
1128	1.121280e-09	1.800000e+00	1.014742e-07	
1129	1.122280e-09	1.800000e+00	1.014742e-07	
1130	1.123280e-09	1.800000e+00	1.014742e-07	
1131	1.124280e-09	1.800000e+00	1.014742e-07	
1132	1.125280e-09	1.800000e+00	1.014742e-07	
1133	1.126280e-09	1.800000e+00	1.014742e-07	
1134	1.127280e-09	1.800000e+00	1.014742e-07	
1135	1.128280e-09	1.800000e+00	1.014742e-07	
1136	1.129280e-09	1.800000e+00	1.014742e-07	
1137	1.130280e-09	1.800000e+00	1.014742e-07	
1138	1.131280e-09	1.800000e+00	1.014742e-07	
1139	1.132280e-09	1.800000e+00	1.014742e-07	
1140	1.133280e-09	1.800000e+00	1.014742e-07	
1141	1.134280e-09	1.800000e+00	1.014742e-07	
1142	1.135280e-09	1.800000e+00	1.014742e-07	
1143	1.136280e-09	1.800000e+00	1.014742e-07	
1144	1.137280e-09	1.800000e+00	1.014742e-07	
1145	1.138280e-09	1.800000e+00	1.014742e-07	
1146	1.139280e-09	1.800000e+00	1.014742e-07	
1147	1.140280e-09	1.800000e+00	1.014742e-07	
1148	1.141280e-09	1.800000e+00	1.014742e-07	
1149	1.142280e-09	1.800000e+00	1.014742e-07	
1150	1.143280e-09	1.800000e+00	1.014742e-07	
1151	1.144280e-09	1.800000e+00	1.014742e-07	
1152	1.145280e-09	1.800000e+00	1.014742e-07	
1153	1.146280e-09	1.800000e+00	1.014742e-07	
1154	1.147280e-09	1.800000e+00	1.014742e-07	
1155	1.148280e-09	1.800000e+00	1.014742e-07	
1156	1.149280e-09	1.800000e+00	1.014742e-07	

Index   time            v(q)            v(qb)           
--------------------------------------------------------------------------------
1157	1.150280e-09	1.800000e+00	1.014742e-07	
1158	1.151280e-09	1.800000e+00	1.014742e-07	
1159	1.152280e-09	1.800000e+00	1.014742e-07	
1160	1.153280e-09	1.800000e+00	1.014742e-07	
1161	1.154280e-09	1.800000e+00	1.014742e-07	
1162	1.155280e-09	1.800000e+00	1.014742e-07	
1163	1.156280e-09	1.800000e+00	1.014742e-07	
1164	1.157280e-09	1.800000e+00	1.014742e-07	
1165	1.158280e-09	1.800000e+00	1.014742e-07	
1166	1.159280e-09	1.800000e+00	1.014742e-07	
1167	1.160280e-09	1.800000e+00	1.014742e-07	
1168	1.161280e-09	1.800000e+00	1.014742e-07	
1169	1.162280e-09	1.800000e+00	1.014742e-07	
1170	1.163280e-09	1.800000e+00	1.014742e-07	
1171	1.164280e-09	1.800000e+00	1.014742e-07	
1172	1.165280e-09	1.800000e+00	1.014742e-07	
1173	1.166280e-09	1.800000e+00	1.014742e-07	
1174	1.167280e-09	1.800000e+00	1.014742e-07	
1175	1.168280e-09	1.800000e+00	1.014742e-07	
1176	1.169280e-09	1.800000e+00	1.014742e-07	
1177	1.170280e-09	1.800000e+00	1.014742e-07	
1178	1.171280e-09	1.800000e+00	1.014742e-07	
1179	1.172280e-09	1.800000e+00	1.014742e-07	
1180	1.173280e-09	1.800000e+00	1.014742e-07	
1181	1.174280e-09	1.800000e+00	1.014742e-07	
1182	1.175280e-09	1.800000e+00	1.014742e-07	
1183	1.176280e-09	1.800000e+00	1.014742e-07	
1184	1.177280e-09	1.800000e+00	1.014742e-07	
1185	1.178280e-09	1.800000e+00	1.014742e-07	
1186	1.179280e-09	1.800000e+00	1.014742e-07	
1187	1.180280e-09	1.800000e+00	1.014742e-07	
1188	1.181280e-09	1.800000e+00	1.014742e-07	
1189	1.182280e-09	1.800000e+00	1.014742e-07	
1190	1.183280e-09	1.800000e+00	1.014742e-07	
1191	1.184280e-09	1.800000e+00	1.014742e-07	
1192	1.185280e-09	1.800000e+00	1.014742e-07	
1193	1.186280e-09	1.800000e+00	1.014742e-07	
1194	1.187280e-09	1.800000e+00	1.014742e-07	
1195	1.188280e-09	1.800000e+00	1.014742e-07	
1196	1.189280e-09	1.800000e+00	1.014742e-07	
1197	1.190280e-09	1.800000e+00	1.014742e-07	
1198	1.191280e-09	1.800000e+00	1.014742e-07	
1199	1.192280e-09	1.800000e+00	1.014742e-07	
1200	1.193280e-09	1.800000e+00	1.014742e-07	
1201	1.194280e-09	1.800000e+00	1.014742e-07	
1202	1.195280e-09	1.800000e+00	1.014742e-07	
1203	1.196280e-09	1.800000e+00	1.014742e-07	
1204	1.197280e-09	1.800000e+00	1.014742e-07	
1205	1.198280e-09	1.800000e+00	1.014742e-07	
1206	1.199280e-09	1.800000e+00	1.014742e-07	
1207	1.200280e-09	1.800000e+00	1.014742e-07	
1208	1.201280e-09	1.800000e+00	1.014742e-07	
1209	1.202280e-09	1.800000e+00	1.014742e-07	
1210	1.203280e-09	1.800000e+00	1.014742e-07	
1211	1.204280e-09	1.800000e+00	1.014742e-07	
1212	1.205280e-09	1.800000e+00	1.014742e-07	
1213	1.206280e-09	1.800000e+00	1.014742e-07	
1214	1.207280e-09	1.800000e+00	1.014742e-07	

Index   time            v(q)            v(qb)           
--------------------------------------------------------------------------------
1215	1.208280e-09	1.800000e+00	1.014742e-07	
1216	1.209280e-09	1.800000e+00	1.014742e-07	
1217	1.210280e-09	1.800000e+00	1.014742e-07	
1218	1.211280e-09	1.800000e+00	1.014742e-07	
1219	1.212280e-09	1.800000e+00	1.014742e-07	
1220	1.213280e-09	1.800000e+00	1.014742e-07	
1221	1.214280e-09	1.800000e+00	1.014742e-07	
1222	1.215280e-09	1.800000e+00	1.014742e-07	
1223	1.216280e-09	1.800000e+00	1.014742e-07	
1224	1.217280e-09	1.800000e+00	1.014742e-07	
1225	1.218280e-09	1.800000e+00	1.014742e-07	
1226	1.219280e-09	1.800000e+00	1.014742e-07	
1227	1.220280e-09	1.800000e+00	1.014742e-07	
1228	1.221280e-09	1.800000e+00	1.014742e-07	
1229	1.222280e-09	1.800000e+00	1.014742e-07	
1230	1.223280e-09	1.800000e+00	1.014742e-07	
1231	1.224280e-09	1.800000e+00	1.014742e-07	
1232	1.225280e-09	1.800000e+00	1.014742e-07	
1233	1.226280e-09	1.800000e+00	1.014742e-07	
1234	1.227280e-09	1.800000e+00	1.014742e-07	
1235	1.228280e-09	1.800000e+00	1.014742e-07	
1236	1.229280e-09	1.800000e+00	1.014742e-07	
1237	1.230280e-09	1.800000e+00	1.014742e-07	
1238	1.231280e-09	1.800000e+00	1.014742e-07	
1239	1.232280e-09	1.800000e+00	1.014742e-07	
1240	1.233280e-09	1.800000e+00	1.014742e-07	
1241	1.234280e-09	1.800000e+00	1.014742e-07	
1242	1.235280e-09	1.800000e+00	1.014742e-07	
1243	1.236280e-09	1.800000e+00	1.014742e-07	
1244	1.237280e-09	1.800000e+00	1.014742e-07	
1245	1.238280e-09	1.800000e+00	1.014742e-07	
1246	1.239280e-09	1.800000e+00	1.014742e-07	
1247	1.240280e-09	1.800000e+00	1.014742e-07	
1248	1.241280e-09	1.800000e+00	1.014742e-07	
1249	1.242280e-09	1.800000e+00	1.014742e-07	
1250	1.243280e-09	1.800000e+00	1.014742e-07	
1251	1.244280e-09	1.800000e+00	1.014742e-07	
1252	1.245280e-09	1.800000e+00	1.014742e-07	
1253	1.246280e-09	1.800000e+00	1.014742e-07	
1254	1.247280e-09	1.800000e+00	1.014742e-07	
1255	1.248280e-09	1.800000e+00	1.014742e-07	
1256	1.249280e-09	1.800000e+00	1.014742e-07	
1257	1.250280e-09	1.800000e+00	1.014742e-07	
1258	1.251280e-09	1.800000e+00	1.014742e-07	
1259	1.252280e-09	1.800000e+00	1.014742e-07	
1260	1.253280e-09	1.800000e+00	1.014742e-07	
1261	1.254280e-09	1.800000e+00	1.014742e-07	
1262	1.255280e-09	1.800000e+00	1.014742e-07	
1263	1.256280e-09	1.800000e+00	1.014742e-07	
1264	1.257280e-09	1.800000e+00	1.014742e-07	
1265	1.258280e-09	1.800000e+00	1.014742e-07	
1266	1.259280e-09	1.800000e+00	1.014742e-07	
1267	1.260280e-09	1.800000e+00	1.014742e-07	
1268	1.261280e-09	1.800000e+00	1.014742e-07	
1269	1.262280e-09	1.800000e+00	1.014742e-07	
1270	1.263280e-09	1.800000e+00	1.014742e-07	
1271	1.264280e-09	1.800000e+00	1.014742e-07	
1272	1.265280e-09	1.800000e+00	1.014742e-07	

Index   time            v(q)            v(qb)           
--------------------------------------------------------------------------------
1273	1.266280e-09	1.800000e+00	1.014742e-07	
1274	1.267280e-09	1.800000e+00	1.014742e-07	
1275	1.268280e-09	1.800000e+00	1.014742e-07	
1276	1.269280e-09	1.800000e+00	1.014742e-07	
1277	1.270280e-09	1.800000e+00	1.014742e-07	
1278	1.271280e-09	1.800000e+00	1.014742e-07	
1279	1.272280e-09	1.800000e+00	1.014742e-07	
1280	1.273280e-09	1.800000e+00	1.014742e-07	
1281	1.274280e-09	1.800000e+00	1.014742e-07	
1282	1.275280e-09	1.800000e+00	1.014742e-07	
1283	1.276280e-09	1.800000e+00	1.014742e-07	
1284	1.277280e-09	1.800000e+00	1.014742e-07	
1285	1.278280e-09	1.800000e+00	1.014742e-07	
1286	1.279280e-09	1.800000e+00	1.014742e-07	
1287	1.280280e-09	1.800000e+00	1.014742e-07	
1288	1.281280e-09	1.800000e+00	1.014742e-07	
1289	1.282280e-09	1.800000e+00	1.014742e-07	
1290	1.283280e-09	1.800000e+00	1.014742e-07	
1291	1.284280e-09	1.800000e+00	1.014742e-07	
1292	1.285280e-09	1.800000e+00	1.014742e-07	
1293	1.286280e-09	1.800000e+00	1.014742e-07	
1294	1.287280e-09	1.800000e+00	1.014742e-07	
1295	1.288280e-09	1.800000e+00	1.014742e-07	
1296	1.289280e-09	1.800000e+00	1.014742e-07	
1297	1.290280e-09	1.800000e+00	1.014742e-07	
1298	1.291280e-09	1.800000e+00	1.014742e-07	
1299	1.292280e-09	1.800000e+00	1.014742e-07	
1300	1.293280e-09	1.800000e+00	1.014742e-07	
1301	1.294280e-09	1.800000e+00	1.014742e-07	
1302	1.295280e-09	1.800000e+00	1.014742e-07	
1303	1.296280e-09	1.800000e+00	1.014742e-07	
1304	1.297280e-09	1.800000e+00	1.014742e-07	
1305	1.298280e-09	1.800000e+00	1.014742e-07	
1306	1.299280e-09	1.800000e+00	1.014742e-07	
1307	1.300280e-09	1.800000e+00	1.014742e-07	
1308	1.301280e-09	1.800000e+00	1.014742e-07	
1309	1.302280e-09	1.800000e+00	1.014742e-07	
1310	1.303280e-09	1.800000e+00	1.014742e-07	
1311	1.304280e-09	1.800000e+00	1.014742e-07	
1312	1.305280e-09	1.800000e+00	1.014742e-07	
1313	1.306280e-09	1.800000e+00	1.014742e-07	
1314	1.307280e-09	1.800000e+00	1.014742e-07	
1315	1.308280e-09	1.800000e+00	1.014742e-07	
1316	1.309280e-09	1.800000e+00	1.014742e-07	
1317	1.310280e-09	1.800000e+00	1.014742e-07	
1318	1.311280e-09	1.800000e+00	1.014742e-07	
1319	1.312280e-09	1.800000e+00	1.014742e-07	
1320	1.313280e-09	1.800000e+00	1.014742e-07	
1321	1.314280e-09	1.800000e+00	1.014742e-07	
1322	1.315280e-09	1.800000e+00	1.014742e-07	
1323	1.316280e-09	1.800000e+00	1.014742e-07	
1324	1.317280e-09	1.800000e+00	1.014742e-07	
1325	1.318280e-09	1.800000e+00	1.014742e-07	
1326	1.319280e-09	1.800000e+00	1.014742e-07	
1327	1.320280e-09	1.800000e+00	1.014742e-07	
1328	1.321280e-09	1.800000e+00	1.014742e-07	
1329	1.322280e-09	1.800000e+00	1.014742e-07	
1330	1.323280e-09	1.800000e+00	1.014742e-07	

Index   time            v(q)            v(qb)           
--------------------------------------------------------------------------------
1331	1.324280e-09	1.800000e+00	1.014742e-07	
1332	1.325280e-09	1.800000e+00	1.014742e-07	
1333	1.326280e-09	1.800000e+00	1.014742e-07	
1334	1.327280e-09	1.800000e+00	1.014742e-07	
1335	1.328280e-09	1.800000e+00	1.014742e-07	
1336	1.329280e-09	1.800000e+00	1.014742e-07	
1337	1.330280e-09	1.800000e+00	1.014742e-07	
1338	1.331280e-09	1.800000e+00	1.014742e-07	
1339	1.332280e-09	1.800000e+00	1.014742e-07	
1340	1.333280e-09	1.800000e+00	1.014742e-07	
1341	1.334280e-09	1.800000e+00	1.014742e-07	
1342	1.335280e-09	1.800000e+00	1.014742e-07	
1343	1.336280e-09	1.800000e+00	1.014742e-07	
1344	1.337280e-09	1.800000e+00	1.014742e-07	
1345	1.338280e-09	1.800000e+00	1.014742e-07	
1346	1.339280e-09	1.800000e+00	1.014742e-07	
1347	1.340280e-09	1.800000e+00	1.014742e-07	
1348	1.341280e-09	1.800000e+00	1.014742e-07	
1349	1.342280e-09	1.800000e+00	1.014742e-07	
1350	1.343280e-09	1.800000e+00	1.014742e-07	
1351	1.344280e-09	1.800000e+00	1.014742e-07	
1352	1.345280e-09	1.800000e+00	1.014742e-07	
1353	1.346280e-09	1.800000e+00	1.014742e-07	
1354	1.347280e-09	1.800000e+00	1.014742e-07	
1355	1.348280e-09	1.800000e+00	1.014742e-07	
1356	1.349280e-09	1.800000e+00	1.014742e-07	
1357	1.350280e-09	1.800000e+00	1.014742e-07	
1358	1.351280e-09	1.800000e+00	1.014742e-07	
1359	1.352280e-09	1.800000e+00	1.014742e-07	
1360	1.353280e-09	1.800000e+00	1.014742e-07	
1361	1.354280e-09	1.800000e+00	1.014742e-07	
1362	1.355280e-09	1.800000e+00	1.014742e-07	
1363	1.356280e-09	1.800000e+00	1.014742e-07	
1364	1.357280e-09	1.800000e+00	1.014742e-07	
1365	1.358280e-09	1.800000e+00	1.014742e-07	
1366	1.359280e-09	1.800000e+00	1.014742e-07	
1367	1.360280e-09	1.800000e+00	1.014742e-07	
1368	1.361280e-09	1.800000e+00	1.014742e-07	
1369	1.362280e-09	1.800000e+00	1.014742e-07	
1370	1.363280e-09	1.800000e+00	1.014742e-07	
1371	1.364280e-09	1.800000e+00	1.014742e-07	
1372	1.365280e-09	1.800000e+00	1.014742e-07	
1373	1.366280e-09	1.800000e+00	1.014742e-07	
1374	1.367280e-09	1.800000e+00	1.014742e-07	
1375	1.368280e-09	1.800000e+00	1.014742e-07	
1376	1.369280e-09	1.800000e+00	1.014742e-07	
1377	1.370280e-09	1.800000e+00	1.014742e-07	
1378	1.371280e-09	1.800000e+00	1.014742e-07	
1379	1.372280e-09	1.800000e+00	1.014742e-07	
1380	1.373280e-09	1.800000e+00	1.014742e-07	
1381	1.374280e-09	1.800000e+00	1.014742e-07	
1382	1.375280e-09	1.800000e+00	1.014742e-07	
1383	1.376280e-09	1.800000e+00	1.014742e-07	
1384	1.377280e-09	1.800000e+00	1.014742e-07	
1385	1.378280e-09	1.800000e+00	1.014742e-07	
1386	1.379280e-09	1.800000e+00	1.014742e-07	
1387	1.380280e-09	1.800000e+00	1.014742e-07	
1388	1.381280e-09	1.800000e+00	1.014742e-07	

Index   time            v(q)            v(qb)           
--------------------------------------------------------------------------------
1389	1.382280e-09	1.800000e+00	1.014742e-07	
1390	1.383280e-09	1.800000e+00	1.014742e-07	
1391	1.384280e-09	1.800000e+00	1.014742e-07	
1392	1.385280e-09	1.800000e+00	1.014742e-07	
1393	1.386280e-09	1.800000e+00	1.014742e-07	
1394	1.387280e-09	1.800000e+00	1.014742e-07	
1395	1.388280e-09	1.800000e+00	1.014742e-07	
1396	1.389280e-09	1.800000e+00	1.014742e-07	
1397	1.390280e-09	1.800000e+00	1.014742e-07	
1398	1.391280e-09	1.800000e+00	1.014742e-07	
1399	1.392280e-09	1.800000e+00	1.014742e-07	
1400	1.393280e-09	1.800000e+00	1.014742e-07	
1401	1.394280e-09	1.800000e+00	1.014742e-07	
1402	1.395280e-09	1.800000e+00	1.014742e-07	
1403	1.396280e-09	1.800000e+00	1.014742e-07	
1404	1.397280e-09	1.800000e+00	1.014742e-07	
1405	1.398280e-09	1.800000e+00	1.014742e-07	
1406	1.399280e-09	1.800000e+00	1.014742e-07	
1407	1.400280e-09	1.800000e+00	1.014742e-07	
1408	1.401280e-09	1.800000e+00	1.014742e-07	
1409	1.402280e-09	1.800000e+00	1.014742e-07	
1410	1.403280e-09	1.800000e+00	1.014742e-07	
1411	1.404280e-09	1.800000e+00	1.014742e-07	
1412	1.405280e-09	1.800000e+00	1.014742e-07	
1413	1.406280e-09	1.800000e+00	1.014742e-07	
1414	1.407280e-09	1.800000e+00	1.014742e-07	
1415	1.408280e-09	1.800000e+00	1.014742e-07	
1416	1.409280e-09	1.800000e+00	1.014742e-07	
1417	1.410280e-09	1.800000e+00	1.014742e-07	
1418	1.411280e-09	1.800000e+00	1.014742e-07	
1419	1.412280e-09	1.800000e+00	1.014742e-07	
1420	1.413280e-09	1.800000e+00	1.014742e-07	
1421	1.414280e-09	1.800000e+00	1.014742e-07	
1422	1.415280e-09	1.800000e+00	1.014742e-07	
1423	1.416280e-09	1.800000e+00	1.014742e-07	
1424	1.417280e-09	1.800000e+00	1.014742e-07	
1425	1.418280e-09	1.800000e+00	1.014742e-07	
1426	1.419280e-09	1.800000e+00	1.014742e-07	
1427	1.420280e-09	1.800000e+00	1.014742e-07	
1428	1.421280e-09	1.800000e+00	1.014742e-07	
1429	1.422280e-09	1.800000e+00	1.014742e-07	
1430	1.423280e-09	1.800000e+00	1.014742e-07	
1431	1.424280e-09	1.800000e+00	1.014742e-07	
1432	1.425280e-09	1.800000e+00	1.014742e-07	
1433	1.426280e-09	1.800000e+00	1.014742e-07	
1434	1.427280e-09	1.800000e+00	1.014742e-07	
1435	1.428280e-09	1.800000e+00	1.014742e-07	
1436	1.429280e-09	1.800000e+00	1.014742e-07	
1437	1.430280e-09	1.800000e+00	1.014742e-07	
1438	1.431280e-09	1.800000e+00	1.014742e-07	
1439	1.432280e-09	1.800000e+00	1.014742e-07	
1440	1.433280e-09	1.800000e+00	1.014742e-07	
1441	1.434280e-09	1.800000e+00	1.014742e-07	
1442	1.435280e-09	1.800000e+00	1.014742e-07	
1443	1.436280e-09	1.800000e+00	1.014742e-07	
1444	1.437280e-09	1.800000e+00	1.014742e-07	
1445	1.438280e-09	1.800000e+00	1.014742e-07	
1446	1.439280e-09	1.800000e+00	1.014742e-07	

Index   time            v(q)            v(qb)           
--------------------------------------------------------------------------------
1447	1.440280e-09	1.800000e+00	1.014742e-07	
1448	1.441280e-09	1.800000e+00	1.014742e-07	
1449	1.442280e-09	1.800000e+00	1.014742e-07	
1450	1.443280e-09	1.800000e+00	1.014742e-07	
1451	1.444280e-09	1.800000e+00	1.014742e-07	
1452	1.445280e-09	1.800000e+00	1.014742e-07	
1453	1.446280e-09	1.800000e+00	1.014742e-07	
1454	1.447280e-09	1.800000e+00	1.014742e-07	
1455	1.448280e-09	1.800000e+00	1.014742e-07	
1456	1.449280e-09	1.800000e+00	1.014742e-07	
1457	1.450280e-09	1.800000e+00	1.014742e-07	
1458	1.451280e-09	1.800000e+00	1.014742e-07	
1459	1.452280e-09	1.800000e+00	1.014742e-07	
1460	1.453280e-09	1.800000e+00	1.014742e-07	
1461	1.454280e-09	1.800000e+00	1.014742e-07	
1462	1.455280e-09	1.800000e+00	1.014742e-07	
1463	1.456280e-09	1.800000e+00	1.014742e-07	
1464	1.457280e-09	1.800000e+00	1.014742e-07	
1465	1.458280e-09	1.800000e+00	1.014742e-07	
1466	1.459280e-09	1.800000e+00	1.014742e-07	
1467	1.460280e-09	1.800000e+00	1.014742e-07	
1468	1.461280e-09	1.800000e+00	1.014742e-07	
1469	1.462280e-09	1.800000e+00	1.014742e-07	
1470	1.463280e-09	1.800000e+00	1.014742e-07	
1471	1.464280e-09	1.800000e+00	1.014742e-07	
1472	1.465280e-09	1.800000e+00	1.014742e-07	
1473	1.466280e-09	1.800000e+00	1.014742e-07	
1474	1.467280e-09	1.800000e+00	1.014742e-07	
1475	1.468280e-09	1.800000e+00	1.014742e-07	
1476	1.469280e-09	1.800000e+00	1.014742e-07	
1477	1.470280e-09	1.800000e+00	1.014742e-07	
1478	1.471280e-09	1.800000e+00	1.014742e-07	
1479	1.472280e-09	1.800000e+00	1.014742e-07	
1480	1.473280e-09	1.800000e+00	1.014742e-07	
1481	1.474280e-09	1.800000e+00	1.014742e-07	
1482	1.475280e-09	1.800000e+00	1.014742e-07	
1483	1.476280e-09	1.800000e+00	1.014742e-07	
1484	1.477280e-09	1.800000e+00	1.014742e-07	
1485	1.478280e-09	1.800000e+00	1.014742e-07	
1486	1.479280e-09	1.800000e+00	1.014742e-07	
1487	1.480280e-09	1.800000e+00	1.014742e-07	
1488	1.481280e-09	1.800000e+00	1.014742e-07	
1489	1.482280e-09	1.800000e+00	1.014742e-07	
1490	1.483280e-09	1.800000e+00	1.014742e-07	
1491	1.484280e-09	1.800000e+00	1.014742e-07	
1492	1.485280e-09	1.800000e+00	1.014742e-07	
1493	1.486280e-09	1.800000e+00	1.014742e-07	
1494	1.487280e-09	1.800000e+00	1.014742e-07	
1495	1.488280e-09	1.800000e+00	1.014742e-07	
1496	1.489280e-09	1.800000e+00	1.014742e-07	
1497	1.490280e-09	1.800000e+00	1.014742e-07	
1498	1.491280e-09	1.800000e+00	1.014742e-07	
1499	1.492280e-09	1.800000e+00	1.014742e-07	
1500	1.493280e-09	1.800000e+00	1.014742e-07	
1501	1.494280e-09	1.800000e+00	1.014742e-07	
1502	1.495280e-09	1.800000e+00	1.014742e-07	
1503	1.496280e-09	1.800000e+00	1.014742e-07	
1504	1.497280e-09	1.800000e+00	1.014742e-07	

Index   time            v(q)            v(qb)           
--------------------------------------------------------------------------------
1505	1.498280e-09	1.800000e+00	1.014742e-07	
1506	1.499280e-09	1.800000e+00	1.014742e-07	
1507	1.500280e-09	1.800000e+00	1.014742e-07	
1508	1.501280e-09	1.800000e+00	1.014742e-07	
1509	1.502280e-09	1.800000e+00	1.014742e-07	
1510	1.503280e-09	1.800000e+00	1.014742e-07	
1511	1.504280e-09	1.800000e+00	1.014742e-07	
1512	1.505280e-09	1.800000e+00	1.014742e-07	
1513	1.506280e-09	1.800000e+00	1.014742e-07	
1514	1.507280e-09	1.800000e+00	1.014742e-07	
1515	1.508280e-09	1.800000e+00	1.014742e-07	
1516	1.509280e-09	1.800000e+00	1.014742e-07	
1517	1.510280e-09	1.800000e+00	1.014742e-07	
1518	1.511280e-09	1.800000e+00	1.014742e-07	
1519	1.512280e-09	1.800000e+00	1.014742e-07	
1520	1.513280e-09	1.800000e+00	1.014742e-07	
1521	1.514280e-09	1.800000e+00	1.014742e-07	
1522	1.515280e-09	1.800000e+00	1.014742e-07	
1523	1.516280e-09	1.800000e+00	1.014742e-07	
1524	1.517280e-09	1.800000e+00	1.014742e-07	
1525	1.518280e-09	1.800000e+00	1.014742e-07	
1526	1.519280e-09	1.800000e+00	1.014742e-07	
1527	1.520280e-09	1.800000e+00	1.014742e-07	
1528	1.521280e-09	1.800000e+00	1.014742e-07	
1529	1.522280e-09	1.800000e+00	1.014742e-07	
1530	1.523280e-09	1.800000e+00	1.014742e-07	
1531	1.524280e-09	1.800000e+00	1.014742e-07	
1532	1.525280e-09	1.800000e+00	1.014742e-07	
1533	1.526280e-09	1.800000e+00	1.014742e-07	
1534	1.527280e-09	1.800000e+00	1.014742e-07	
1535	1.528280e-09	1.800000e+00	1.014742e-07	
1536	1.529280e-09	1.800000e+00	1.014742e-07	
1537	1.530280e-09	1.800000e+00	1.014742e-07	
1538	1.531280e-09	1.800000e+00	1.014742e-07	
1539	1.532280e-09	1.800000e+00	1.014742e-07	
1540	1.533280e-09	1.800000e+00	1.014742e-07	
1541	1.534280e-09	1.800000e+00	1.014742e-07	
1542	1.535280e-09	1.800000e+00	1.014742e-07	
1543	1.536280e-09	1.800000e+00	1.014742e-07	
1544	1.537280e-09	1.800000e+00	1.014742e-07	
1545	1.538280e-09	1.800000e+00	1.014742e-07	
1546	1.539280e-09	1.800000e+00	1.014742e-07	
1547	1.540280e-09	1.800000e+00	1.014742e-07	
1548	1.541280e-09	1.800000e+00	1.014742e-07	
1549	1.542280e-09	1.800000e+00	1.014742e-07	
1550	1.543280e-09	1.800000e+00	1.014742e-07	
1551	1.544280e-09	1.800000e+00	1.014742e-07	
1552	1.545280e-09	1.800000e+00	1.014742e-07	
1553	1.546280e-09	1.800000e+00	1.014742e-07	
1554	1.547280e-09	1.800000e+00	1.014742e-07	
1555	1.548280e-09	1.800000e+00	1.014742e-07	
1556	1.549280e-09	1.800000e+00	1.014742e-07	
1557	1.550280e-09	1.800000e+00	1.014742e-07	
1558	1.551280e-09	1.800000e+00	1.014742e-07	
1559	1.552280e-09	1.800000e+00	1.014742e-07	
1560	1.553280e-09	1.800000e+00	1.014742e-07	
1561	1.554280e-09	1.800000e+00	1.014742e-07	
1562	1.555280e-09	1.800000e+00	1.014742e-07	

Index   time            v(q)            v(qb)           
--------------------------------------------------------------------------------
1563	1.556280e-09	1.800000e+00	1.014742e-07	
1564	1.557280e-09	1.800000e+00	1.014742e-07	
1565	1.558280e-09	1.800000e+00	1.014742e-07	
1566	1.559280e-09	1.800000e+00	1.014742e-07	
1567	1.560280e-09	1.800000e+00	1.014742e-07	
1568	1.561280e-09	1.800000e+00	1.014742e-07	
1569	1.562280e-09	1.800000e+00	1.014742e-07	
1570	1.563280e-09	1.800000e+00	1.014742e-07	
1571	1.564280e-09	1.800000e+00	1.014742e-07	
1572	1.565280e-09	1.800000e+00	1.014742e-07	
1573	1.566280e-09	1.800000e+00	1.014742e-07	
1574	1.567280e-09	1.800000e+00	1.014742e-07	
1575	1.568280e-09	1.800000e+00	1.014742e-07	
1576	1.569280e-09	1.800000e+00	1.014742e-07	
1577	1.570280e-09	1.800000e+00	1.014742e-07	
1578	1.571280e-09	1.800000e+00	1.014742e-07	
1579	1.572280e-09	1.800000e+00	1.014742e-07	
1580	1.573280e-09	1.800000e+00	1.014742e-07	
1581	1.574280e-09	1.800000e+00	1.014742e-07	
1582	1.575280e-09	1.800000e+00	1.014742e-07	
1583	1.576280e-09	1.800000e+00	1.014742e-07	
1584	1.577280e-09	1.800000e+00	1.014742e-07	
1585	1.578280e-09	1.800000e+00	1.014742e-07	
1586	1.579280e-09	1.800000e+00	1.014742e-07	
1587	1.580280e-09	1.800000e+00	1.014742e-07	
1588	1.581280e-09	1.800000e+00	1.014742e-07	
1589	1.582280e-09	1.800000e+00	1.014742e-07	
1590	1.583280e-09	1.800000e+00	1.014742e-07	
1591	1.584280e-09	1.800000e+00	1.014742e-07	
1592	1.585280e-09	1.800000e+00	1.014742e-07	
1593	1.586280e-09	1.800000e+00	1.014742e-07	
1594	1.587280e-09	1.800000e+00	1.014742e-07	
1595	1.588280e-09	1.800000e+00	1.014742e-07	
1596	1.589280e-09	1.800000e+00	1.014742e-07	
1597	1.590280e-09	1.800000e+00	1.014742e-07	
1598	1.591280e-09	1.800000e+00	1.014742e-07	
1599	1.592280e-09	1.800000e+00	1.014742e-07	
1600	1.593280e-09	1.800000e+00	1.014742e-07	
1601	1.594280e-09	1.800000e+00	1.014742e-07	
1602	1.595280e-09	1.800000e+00	1.014742e-07	
1603	1.596280e-09	1.800000e+00	1.014742e-07	
1604	1.597280e-09	1.800000e+00	1.014742e-07	
1605	1.598280e-09	1.800000e+00	1.014742e-07	
1606	1.599280e-09	1.800000e+00	1.014742e-07	
1607	1.600280e-09	1.800000e+00	1.014742e-07	
1608	1.601280e-09	1.800000e+00	1.014742e-07	
1609	1.602280e-09	1.800000e+00	1.014742e-07	
1610	1.603280e-09	1.800000e+00	1.014742e-07	
1611	1.604280e-09	1.800000e+00	1.014742e-07	
1612	1.605280e-09	1.800000e+00	1.014742e-07	
1613	1.606280e-09	1.800000e+00	1.014742e-07	
1614	1.607280e-09	1.800000e+00	1.014742e-07	
1615	1.608280e-09	1.800000e+00	1.014742e-07	
1616	1.609280e-09	1.800000e+00	1.014742e-07	
1617	1.610280e-09	1.800000e+00	1.014742e-07	
1618	1.611280e-09	1.800000e+00	1.014742e-07	
1619	1.612280e-09	1.800000e+00	1.014742e-07	
1620	1.613280e-09	1.800000e+00	1.014742e-07	

Index   time            v(q)            v(qb)           
--------------------------------------------------------------------------------
1621	1.614280e-09	1.800000e+00	1.014742e-07	
1622	1.615280e-09	1.800000e+00	1.014742e-07	
1623	1.616280e-09	1.800000e+00	1.014742e-07	
1624	1.617280e-09	1.800000e+00	1.014742e-07	
1625	1.618280e-09	1.800000e+00	1.014742e-07	
1626	1.619280e-09	1.800000e+00	1.014742e-07	
1627	1.620280e-09	1.800000e+00	1.014742e-07	
1628	1.621280e-09	1.800000e+00	1.014742e-07	
1629	1.622280e-09	1.800000e+00	1.014742e-07	
1630	1.623280e-09	1.800000e+00	1.014742e-07	
1631	1.624280e-09	1.800000e+00	1.014742e-07	
1632	1.625280e-09	1.800000e+00	1.014742e-07	
1633	1.626280e-09	1.800000e+00	1.014742e-07	
1634	1.627280e-09	1.800000e+00	1.014742e-07	
1635	1.628280e-09	1.800000e+00	1.014742e-07	
1636	1.629280e-09	1.800000e+00	1.014742e-07	
1637	1.630280e-09	1.800000e+00	1.014742e-07	
1638	1.631280e-09	1.800000e+00	1.014742e-07	
1639	1.632280e-09	1.800000e+00	1.014742e-07	
1640	1.633280e-09	1.800000e+00	1.014742e-07	
1641	1.634280e-09	1.800000e+00	1.014742e-07	
1642	1.635280e-09	1.800000e+00	1.014742e-07	
1643	1.636280e-09	1.800000e+00	1.014742e-07	
1644	1.637280e-09	1.800000e+00	1.014742e-07	
1645	1.638280e-09	1.800000e+00	1.014742e-07	
1646	1.639280e-09	1.800000e+00	1.014742e-07	
1647	1.640280e-09	1.800000e+00	1.014742e-07	
1648	1.641280e-09	1.800000e+00	1.014742e-07	
1649	1.642280e-09	1.800000e+00	1.014742e-07	
1650	1.643280e-09	1.800000e+00	1.014742e-07	
1651	1.644280e-09	1.800000e+00	1.014742e-07	
1652	1.645280e-09	1.800000e+00	1.014742e-07	
1653	1.646280e-09	1.800000e+00	1.014742e-07	
1654	1.647280e-09	1.800000e+00	1.014742e-07	
1655	1.648280e-09	1.800000e+00	1.014742e-07	
1656	1.649280e-09	1.800000e+00	1.014742e-07	
1657	1.650280e-09	1.800000e+00	1.014742e-07	
1658	1.651280e-09	1.800000e+00	1.014742e-07	
1659	1.652280e-09	1.800000e+00	1.014742e-07	
1660	1.653280e-09	1.800000e+00	1.014742e-07	
1661	1.654280e-09	1.800000e+00	1.014742e-07	
1662	1.655280e-09	1.800000e+00	1.014742e-07	
1663	1.656280e-09	1.800000e+00	1.014742e-07	
1664	1.657280e-09	1.800000e+00	1.014742e-07	
1665	1.658280e-09	1.800000e+00	1.014742e-07	
1666	1.659280e-09	1.800000e+00	1.014742e-07	
1667	1.660280e-09	1.800000e+00	1.014742e-07	
1668	1.661280e-09	1.800000e+00	1.014742e-07	
1669	1.662280e-09	1.800000e+00	1.014742e-07	
1670	1.663280e-09	1.800000e+00	1.014742e-07	
1671	1.664280e-09	1.800000e+00	1.014742e-07	
1672	1.665280e-09	1.800000e+00	1.014742e-07	
1673	1.666280e-09	1.800000e+00	1.014742e-07	
1674	1.667280e-09	1.800000e+00	1.014742e-07	
1675	1.668280e-09	1.800000e+00	1.014742e-07	
1676	1.669280e-09	1.800000e+00	1.014742e-07	
1677	1.670280e-09	1.800000e+00	1.014742e-07	
1678	1.671280e-09	1.800000e+00	1.014742e-07	

Index   time            v(q)            v(qb)           
--------------------------------------------------------------------------------
1679	1.672280e-09	1.800000e+00	1.014742e-07	
1680	1.673280e-09	1.800000e+00	1.014742e-07	
1681	1.674280e-09	1.800000e+00	1.014742e-07	
1682	1.675280e-09	1.800000e+00	1.014742e-07	
1683	1.676280e-09	1.800000e+00	1.014742e-07	
1684	1.677280e-09	1.800000e+00	1.014742e-07	
1685	1.678280e-09	1.800000e+00	1.014742e-07	
[...]
4594	4.587280e-09	1.800000e+00	1.014742e-07	
4595	4.588280e-09	1.800000e+00	1.014742e-07	
4596	4.589280e-09	1.800000e+00	1.014742e-07	
4597	4.590280e-09	1.800000e+00	1.014742e-07	
4598	4.591280e-09	1.800000e+00	1.014742e-07	
4599	4.592280e-09	1.800000e+00	1.014742e-07	
4600	4.593280e-09	1.800000e+00	1.014742e-07	
4601	4.594280e-09	1.800000e+00	1.014742e-07	
4602	4.595280e-09	1.800000e+00	1.014742e-07	
4603	4.596280e-09	1.800000e+00	1.014742e-07	
4604	4.597280e-09	1.800000e+00	1.014742e-07	
4605	4.598280e-09	1.800000e+00	1.014742e-07	
4606	4.599280e-09	1.800000e+00	1.014742e-07	
4607	4.600280e-09	1.800000e+00	1.014742e-07	
4608	4.601280e-09	1.800000e+00	1.014742e-07	
4609	4.602280e-09	1.800000e+00	1.014742e-07	
4610	4.603280e-09	1.800000e+00	1.014742e-07	
4611	4.604280e-09	1.800000e+00	1.014742e-07	
4612	4.605280e-09	1.800000e+00	1.014742e-07	
4613	4.606280e-09	1.800000e+00	1.014742e-07	
4614	4.607280e-09	1.800000e+00	1.014742e-07	
4615	4.608280e-09	1.800000e+00	1.014742e-07	
4616	4.609280e-09	1.800000e+00	1.014742e-07	
4617	4.610280e-09	1.800000e+00	1.014742e-07	
4618	4.611280e-09	1.800000e+00	1.014742e-07	
4619	4.612280e-09	1.800000e+00	1.014742e-07	
4620	4.613280e-09	1.800000e+00	1.014742e-07	
4621	4.614280e-09	1.800000e+00	1.014742e-07	
4622	4.615280e-09	1.800000e+00	1.014742e-07	
4623	4.616280e-09	1.800000e+00	1.014742e-07	
4624	4.617280e-09	1.800000e+00	1.014742e-07	
4625	4.618280e-09	1.800000e+00	1.014742e-07	
4626	4.619280e-09	1.800000e+00	1.014742e-07	
4627	4.620280e-09	1.800000e+00	1.014742e-07	
4628	4.621280e-09	1.800000e+00	1.014742e-07	
4629	4.622280e-09	1.800000e+00	1.014742e-07	
4630	4.623280e-09	1.800000e+00	1.014742e-07	
4631	4.624280e-09	1.800000e+00	1.014742e-07	
4632	4.625280e-09	1.800000e+00	1.014742e-07	
4633	4.626280e-09	1.800000e+00	1.014742e-07	
4634	4.627280e-09	1.800000e+00	1.014742e-07	
4635	4.628280e-09	1.800000e+00	1.014742e-07	
4636	4.629280e-09	1.800000e+00	1.014742e-07	

Index   time            v(q)            v(qb)           
--------------------------------------------------------------------------------
4637	4.630280e-09	1.800000e+00	1.014742e-07	
4638	4.631280e-09	1.800000e+00	1.014742e-07	
4639	4.632280e-09	1.800000e+00	1.014742e-07	
4640	4.633280e-09	1.800000e+00	1.014742e-07	
4641	4.634280e-09	1.800000e+00	1.014742e-07	
4642	4.635280e-09	1.800000e+00	1.014742e-07	
4643	4.636280e-09	1.800000e+00	1.014742e-07	
4644	4.637280e-09	1.800000e+00	1.014742e-07	
4645	4.638280e-09	1.800000e+00	1.014742e-07	
4646	4.639280e-09	1.800000e+00	1.014742e-07	
4647	4.640280e-09	1.800000e+00	1.014742e-07	
4648	4.641280e-09	1.800000e+00	1.014742e-07	
4649	4.642280e-09	1.800000e+00	1.014742e-07	
4650	4.643280e-09	1.800000e+00	1.014742e-07	
4651	4.644280e-09	1.800000e+00	1.014742e-07	
4652	4.645280e-09	1.800000e+00	1.014742e-07	
4653	4.646280e-09	1.800000e+00	1.014742e-07	
4654	4.647280e-09	1.800000e+00	1.014742e-07	
4655	4.648280e-09	1.800000e+00	1.014742e-07	
4656	4.649280e-09	1.800000e+00	1.014742e-07	
4657	4.650280e-09	1.800000e+00	1.014742e-07	
4658	4.651280e-09	1.800000e+00	1.014742e-07	
4659	4.652280e-09	1.800000e+00	1.014742e-07	
4660	4.653280e-09	1.800000e+00	1.014742e-07	
4661	4.654280e-09	1.800000e+00	1.014742e-07	
4662	4.655280e-09	1.800000e+00	1.014742e-07	
4663	4.656280e-09	1.800000e+00	1.014742e-07	
4664	4.657280e-09	1.800000e+00	1.014742e-07	
4665	4.658280e-09	1.800000e+00	1.014742e-07	
4666	4.659280e-09	1.800000e+00	1.014742e-07	
4667	4.660280e-09	1.800000e+00	1.014742e-07	
4668	4.661280e-09	1.800000e+00	1.014742e-07	
4669	4.662280e-09	1.800000e+00	1.014742e-07	
4670	4.663280e-09	1.800000e+00	1.014742e-07	
4671	4.664280e-09	1.800000e+00	1.014742e-07	
4672	4.665280e-09	1.800000e+00	1.014742e-07	
4673	4.666280e-09	1.800000e+00	1.014742e-07	
4674	4.667280e-09	1.800000e+00	1.014742e-07	
4675	4.668280e-09	1.800000e+00	1.014742e-07	
4676	4.669280e-09	1.800000e+00	1.014742e-07	
4677	4.670280e-09	1.800000e+00	1.014742e-07	
4678	4.671280e-09	1.800000e+00	1.014742e-07	
4679	4.672280e-09	1.800000e+00	1.014742e-07	
4680	4.673280e-09	1.800000e+00	1.014742e-07	
4681	4.674280e-09	1.800000e+00	1.014742e-07	
4682	4.675280e-09	1.800000e+00	1.014742e-07	
4683	4.676280e-09	1.800000e+00	1.014742e-07	
4684	4.677280e-09	1.800000e+00	1.014742e-07	
4685	4.678280e-09	1.800000e+00	1.014742e-07	
4686	4.679280e-09	1.800000e+00	1.014742e-07	
4687	4.680280e-09	1.800000e+00	1.014742e-07	
4688	4.681280e-09	1.800000e+00	1.014742e-07	
4689	4.682280e-09	1.800000e+00	1.014742e-07	
4690	4.683280e-09	1.800000e+00	1.014742e-07	
4691	4.684280e-09	1.800000e+00	1.014742e-07	
4692	4.685280e-09	1.800000e+00	1.014742e-07	
4693	4.686280e-09	1.800000e+00	1.014742e-07	
4694	4.687280e-09	1.800000e+00	1.014742e-07	

Index   time            v(q)            v(qb)           
--------------------------------------------------------------------------------
4695	4.688280e-09	1.800000e+00	1.014742e-07	
4696	4.689280e-09	1.800000e+00	1.014742e-07	
4697	4.690280e-09	1.800000e+00	1.014742e-07	
4698	4.691280e-09	1.800000e+00	1.014742e-07	
4699	4.692280e-09	1.800000e+00	1.014742e-07	
4700	4.693280e-09	1.800000e+00	1.014742e-07	
4701	4.694280e-09	1.800000e+00	1.014742e-07	
4702	4.695280e-09	1.800000e+00	1.014742e-07	
4703	4.696280e-09	1.800000e+00	1.014742e-07	
4704	4.697280e-09	1.800000e+00	1.014742e-07	
4705	4.698280e-09	1.800000e+00	1.014742e-07	
4706	4.699280e-09	1.800000e+00	1.014742e-07	
4707	4.700280e-09	1.800000e+00	1.014742e-07	
4708	4.701280e-09	1.800000e+00	1.014742e-07	
4709	4.702280e-09	1.800000e+00	1.014742e-07	
4710	4.703280e-09	1.800000e+00	1.014742e-07	
4711	4.704280e-09	1.800000e+00	1.014742e-07	
4712	4.705280e-09	1.800000e+00	1.014742e-07	
4713	4.706280e-09	1.800000e+00	1.014742e-07	
4714	4.707280e-09	1.800000e+00	1.014742e-07	
4715	4.708280e-09	1.800000e+00	1.014742e-07	
4716	4.709280e-09	1.800000e+00	1.014742e-07	
4717	4.710280e-09	1.800000e+00	1.014742e-07	
4718	4.711280e-09	1.800000e+00	1.014742e-07	
4719	4.712280e-09	1.800000e+00	1.014742e-07	
4720	4.713280e-09	1.800000e+00	1.014742e-07	
4721	4.714280e-09	1.800000e+00	1.014742e-07	
4722	4.715280e-09	1.800000e+00	1.014742e-07	
4723	4.716280e-09	1.800000e+00	1.014742e-07	
4724	4.717280e-09	1.800000e+00	1.014742e-07	
4725	4.718280e-09	1.800000e+00	1.014742e-07	
4726	4.719280e-09	1.800000e+00	1.014742e-07	
4727	4.720280e-09	1.800000e+00	1.014742e-07	
4728	4.721280e-09	1.800000e+00	1.014742e-07	
4729	4.722280e-09	1.800000e+00	1.014742e-07	
4730	4.723280e-09	1.800000e+00	1.014742e-07	
4731	4.724280e-09	1.800000e+00	1.014742e-07	
4732	4.725280e-09	1.800000e+00	1.014742e-07	
4733	4.726280e-09	1.800000e+00	1.014742e-07	
4734	4.727280e-09	1.800000e+00	1.014742e-07	
4735	4.728280e-09	1.800000e+00	1.014742e-07	
4736	4.729280e-09	1.800000e+00	1.014742e-07	
4737	4.730280e-09	1.800000e+00	1.014742e-07	
4738	4.731280e-09	1.800000e+00	1.014742e-07	
4739	4.732280e-09	1.800000e+00	1.014742e-07	
4740	4.733280e-09	1.800000e+00	1.014742e-07	
4741	4.734280e-09	1.800000e+00	1.014742e-07	
4742	4.735280e-09	1.800000e+00	1.014742e-07	
4743	4.736280e-09	1.800000e+00	1.014742e-07	
4744	4.737280e-09	1.800000e+00	1.014742e-07	
4745	4.738280e-09	1.800000e+00	1.014742e-07	
4746	4.739280e-09	1.800000e+00	1.014742e-07	
4747	4.740280e-09	1.800000e+00	1.014742e-07	
4748	4.741280e-09	1.800000e+00	1.014742e-07	
4749	4.742280e-09	1.800000e+00	1.014742e-07	
4750	4.743280e-09	1.800000e+00	1.014742e-07	
4751	4.744280e-09	1.800000e+00	1.014742e-07	
4752	4.745280e-09	1.800000e+00	1.014742e-07	

Index   time            v(q)            v(qb)           
--------------------------------------------------------------------------------
4753	4.746280e-09	1.800000e+00	1.014742e-07	
4754	4.747280e-09	1.800000e+00	1.014742e-07	
4755	4.748280e-09	1.800000e+00	1.014742e-07	
4756	4.749280e-09	1.800000e+00	1.014742e-07	
4757	4.750280e-09	1.800000e+00	1.014742e-07	
4758	4.751280e-09	1.800000e+00	1.014742e-07	
4759	4.752280e-09	1.800000e+00	1.014742e-07	
4760	4.753280e-09	1.800000e+00	1.014742e-07	
4761	4.754280e-09	1.800000e+00	1.014742e-07	
4762	4.755280e-09	1.800000e+00	1.014742e-07	
4763	4.756280e-09	1.800000e+00	1.014742e-07	
4764	4.757280e-09	1.800000e+00	1.014742e-07	
4765	4.758280e-09	1.800000e+00	1.014742e-07	
4766	4.759280e-09	1.800000e+00	1.014742e-07	
4767	4.760280e-09	1.800000e+00	1.014742e-07	
4768	4.761280e-09	1.800000e+00	1.014742e-07	
4769	4.762280e-09	1.800000e+00	1.014742e-07	
4770	4.763280e-09	1.800000e+00	1.014742e-07	
4771	4.764280e-09	1.800000e+00	1.014742e-07	
4772	4.765280e-09	1.800000e+00	1.014742e-07	
4773	4.766280e-09	1.800000e+00	1.014742e-07	
4774	4.767280e-09	1.800000e+00	1.014742e-07	
4775	4.768280e-09	1.800000e+00	1.014742e-07	
4776	4.769280e-09	1.800000e+00	1.014742e-07	
4777	4.770280e-09	1.800000e+00	1.014742e-07	
4778	4.771280e-09	1.800000e+00	1.014742e-07	
4779	4.772280e-09	1.800000e+00	1.014742e-07	
4780	4.773280e-09	1.800000e+00	1.014742e-07	
4781	4.774280e-09	1.800000e+00	1.014742e-07	
4782	4.775280e-09	1.800000e+00	1.014742e-07	
4783	4.776280e-09	1.800000e+00	1.014742e-07	
4784	4.777280e-09	1.800000e+00	1.014742e-07	
4785	4.778280e-09	1.800000e+00	1.014742e-07	
4786	4.779280e-09	1.800000e+00	1.014742e-07	
4787	4.780280e-09	1.800000e+00	1.014742e-07	
4788	4.781280e-09	1.800000e+00	1.014742e-07	
4789	4.782280e-09	1.800000e+00	1.014742e-07	
4790	4.783280e-09	1.800000e+00	1.014742e-07	
4791	4.784280e-09	1.800000e+00	1.014742e-07	
4792	4.785280e-09	1.800000e+00	1.014742e-07	
4793	4.786280e-09	1.800000e+00	1.014742e-07	
4794	4.787280e-09	1.800000e+00	1.014742e-07	
4795	4.788280e-09	1.800000e+00	1.014742e-07	
4796	4.789280e-09	1.800000e+00	1.014742e-07	
4797	4.790280e-09	1.800000e+00	1.014742e-07	
4798	4.791280e-09	1.800000e+00	1.014742e-07	
4799	4.792280e-09	1.800000e+00	1.014742e-07	
4800	4.793280e-09	1.800000e+00	1.014742e-07	
4801	4.794280e-09	1.800000e+00	1.014742e-07	
4802	4.795280e-09	1.800000e+00	1.014742e-07	
4803	4.796280e-09	1.800000e+00	1.014742e-07	
4804	4.797280e-09	1.800000e+00	1.014742e-07	
4805	4.798280e-09	1.800000e+00	1.014742e-07	
4806	4.799280e-09	1.800000e+00	1.014742e-07	
4807	4.800280e-09	1.800000e+00	1.014742e-07	
4808	4.801280e-09	1.800000e+00	1.014742e-07	
4809	4.802280e-09	1.800000e+00	1.014742e-07	
4810	4.803280e-09	1.800000e+00	1.014742e-07	

Index   time            v(q)            v(qb)           
--------------------------------------------------------------------------------
4811	4.804280e-09	1.800000e+00	1.014742e-07	
4812	4.805280e-09	1.800000e+00	1.014742e-07	
4813	4.806280e-09	1.800000e+00	1.014742e-07	
4814	4.807280e-09	1.800000e+00	1.014742e-07	
4815	4.808280e-09	1.800000e+00	1.014742e-07	
4816	4.809280e-09	1.800000e+00	1.014742e-07	
4817	4.810280e-09	1.800000e+00	1.014742e-07	
4818	4.811280e-09	1.800000e+00	1.014742e-07	
4819	4.812280e-09	1.800000e+00	1.014742e-07	
4820	4.813280e-09	1.800000e+00	1.014742e-07	
4821	4.814280e-09	1.800000e+00	1.014742e-07	
4822	4.815280e-09	1.800000e+00	1.014742e-07	
4823	4.816280e-09	1.800000e+00	1.014742e-07	
4824	4.817280e-09	1.800000e+00	1.014742e-07	
4825	4.818280e-09	1.800000e+00	1.014742e-07	
4826	4.819280e-09	1.800000e+00	1.014742e-07	
4827	4.820280e-09	1.800000e+00	1.014742e-07	
4828	4.821280e-09	1.800000e+00	1.014742e-07	
4829	4.822280e-09	1.800000e+00	1.014742e-07	
4830	4.823280e-09	1.800000e+00	1.014742e-07	
4831	4.824280e-09	1.800000e+00	1.014742e-07	
4832	4.825280e-09	1.800000e+00	1.014742e-07	
4833	4.826280e-09	1.800000e+00	1.014742e-07	
4834	4.827280e-09	1.800000e+00	1.014742e-07	
4835	4.828280e-09	1.800000e+00	1.014742e-07	
4836	4.829280e-09	1.800000e+00	1.014742e-07	
4837	4.830280e-09	1.800000e+00	1.014742e-07	
4838	4.831280e-09	1.800000e+00	1.014742e-07	
4839	4.832280e-09	1.800000e+00	1.014742e-07	
4840	4.833280e-09	1.800000e+00	1.014742e-07	
4841	4.834280e-09	1.800000e+00	1.014742e-07	
4842	4.835280e-09	1.800000e+00	1.014742e-07	
4843	4.836280e-09	1.800000e+00	1.014742e-07	
4844	4.837280e-09	1.800000e+00	1.014742e-07	
4845	4.838280e-09	1.800000e+00	1.014742e-07	
4846	4.839280e-09	1.800000e+00	1.014742e-07	
4847	4.840280e-09	1.800000e+00	1.014742e-07	
4848	4.841280e-09	1.800000e+00	1.014742e-07	
4849	4.842280e-09	1.800000e+00	1.014742e-07	
4850	4.843280e-09	1.800000e+00	1.014742e-07	
4851	4.844280e-09	1.800000e+00	1.014742e-07	
4852	4.845280e-09	1.800000e+00	1.014742e-07	
4853	4.846280e-09	1.800000e+00	1.014742e-07	
4854	4.847280e-09	1.800000e+00	1.014742e-07	
4855	4.848280e-09	1.800000e+00	1.014742e-07	
4856	4.849280e-09	1.800000e+00	1.014742e-07	
4857	4.850280e-09	1.800000e+00	1.014742e-07	
4858	4.851280e-09	1.800000e+00	1.014742e-07	
4859	4.852280e-09	1.800000e+00	1.014742e-07	
4860	4.853280e-09	1.800000e+00	1.014742e-07	
4861	4.854280e-09	1.800000e+00	1.014742e-07	
4862	4.855280e-09	1.800000e+00	1.014742e-07	
4863	4.856280e-09	1.800000e+00	1.014742e-07	
4864	4.857280e-09	1.800000e+00	1.014742e-07	
4865	4.858280e-09	1.800000e+00	1.014742e-07	
4866	4.859280e-09	1.800000e+00	1.014742e-07	
4867	4.860280e-09	1.800000e+00	1.014742e-07	
4868	4.861280e-09	1.800000e+00	1.014742e-07	

Index   time            v(q)            v(qb)           
--------------------------------------------------------------------------------
4869	4.862280e-09	1.800000e+00	1.014742e-07	
4870	4.863280e-09	1.800000e+00	1.014742e-07	
4871	4.864280e-09	1.800000e+00	1.014742e-07	
4872	4.865280e-09	1.800000e+00	1.014742e-07	
4873	4.866280e-09	1.800000e+00	1.014742e-07	
4874	4.867280e-09	1.800000e+00	1.014742e-07	
4875	4.868280e-09	1.800000e+00	1.014742e-07	
4876	4.869280e-09	1.800000e+00	1.014742e-07	
4877	4.870280e-09	1.800000e+00	1.014742e-07	
4878	4.871280e-09	1.800000e+00	1.014742e-07	
4879	4.872280e-09	1.800000e+00	1.014742e-07	
4880	4.873280e-09	1.800000e+00	1.014742e-07	
4881	4.874280e-09	1.800000e+00	1.014742e-07	
4882	4.875280e-09	1.800000e+00	1.014742e-07	
4883	4.876280e-09	1.800000e+00	1.014742e-07	
4884	4.877280e-09	1.800000e+00	1.014742e-07	
4885	4.878280e-09	1.800000e+00	1.014742e-07	
4886	4.879280e-09	1.800000e+00	1.014742e-07	
4887	4.880280e-09	1.800000e+00	1.014742e-07	
4888	4.881280e-09	1.800000e+00	1.014742e-07	
4889	4.882280e-09	1.800000e+00	1.014742e-07	
4890	4.883280e-09	1.800000e+00	1.014742e-07	
4891	4.884280e-09	1.800000e+00	1.014742e-07	
4892	4.885280e-09	1.800000e+00	1.014742e-07	
4893	4.886280e-09	1.800000e+00	1.014742e-07	
4894	4.887280e-09	1.800000e+00	1.014742e-07	
4895	4.888280e-09	1.800000e+00	1.014742e-07	
4896	4.889280e-09	1.800000e+00	1.014742e-07	
4897	4.890280e-09	1.800000e+00	1.014742e-07	
4898	4.891280e-09	1.800000e+00	1.014742e-07	
4899	4.892280e-09	1.800000e+00	1.014742e-07	
4900	4.893280e-09	1.800000e+00	1.014742e-07	
4901	4.894280e-09	1.800000e+00	1.014742e-07	
4902	4.895280e-09	1.800000e+00	1.014742e-07	
4903	4.896280e-09	1.800000e+00	1.014742e-07	
4904	4.897280e-09	1.800000e+00	1.014742e-07	
4905	4.898280e-09	1.800000e+00	1.014742e-07	
4906	4.899280e-09	1.800000e+00	1.014742e-07	
4907	4.900280e-09	1.800000e+00	1.014742e-07	
4908	4.901280e-09	1.800000e+00	1.014742e-07	
4909	4.902280e-09	1.800000e+00	1.014742e-07	
4910	4.903280e-09	1.800000e+00	1.014742e-07	
4911	4.904280e-09	1.800000e+00	1.014742e-07	
4912	4.905280e-09	1.800000e+00	1.014742e-07	
4913	4.906280e-09	1.800000e+00	1.014742e-07	
4914	4.907280e-09	1.800000e+00	1.014742e-07	
4915	4.908280e-09	1.800000e+00	1.014742e-07	
4916	4.909280e-09	1.800000e+00	1.014742e-07	
4917	4.910280e-09	1.800000e+00	1.014742e-07	
4918	4.911280e-09	1.800000e+00	1.014742e-07	
4919	4.912280e-09	1.800000e+00	1.014742e-07	
4920	4.913280e-09	1.800000e+00	1.014742e-07	
4921	4.914280e-09	1.800000e+00	1.014742e-07	
4922	4.915280e-09	1.800000e+00	1.014742e-07	
4923	4.916280e-09	1.800000e+00	1.014742e-07	
4924	4.917280e-09	1.800000e+00	1.014742e-07	
4925	4.918280e-09	1.800000e+00	1.014742e-07	
4926	4.919280e-09	1.800000e+00	1.014742e-07	

Index   time            v(q)            v(qb)           
--------------------------------------------------------------------------------
4927	4.920280e-09	1.800000e+00	1.014742e-07	
4928	4.921280e-09	1.800000e+00	1.014742e-07	
4929	4.922280e-09	1.800000e+00	1.014742e-07	
4930	4.923280e-09	1.800000e+00	1.014742e-07	
4931	4.924280e-09	1.800000e+00	1.014742e-07	
4932	4.925280e-09	1.800000e+00	1.014742e-07	
4933	4.926280e-09	1.800000e+00	1.014742e-07	
4934	4.927280e-09	1.800000e+00	1.014742e-07	
4935	4.928280e-09	1.800000e+00	1.014742e-07	
4936	4.929280e-09	1.800000e+00	1.014742e-07	
4937	4.930280e-09	1.800000e+00	1.014742e-07	
4938	4.931280e-09	1.800000e+00	1.014742e-07	
4939	4.932280e-09	1.800000e+00	1.014742e-07	
4940	4.933280e-09	1.800000e+00	1.014742e-07	
4941	4.934280e-09	1.800000e+00	1.014742e-07	
4942	4.935280e-09	1.800000e+00	1.014742e-07	
4943	4.936280e-09	1.800000e+00	1.014742e-07	
4944	4.937280e-09	1.800000e+00	1.014742e-07	
4945	4.938280e-09	1.800000e+00	1.014742e-07	
4946	4.939280e-09	1.800000e+00	1.014742e-07	
4947	4.940280e-09	1.800000e+00	1.014742e-07	
4948	4.941280e-09	1.800000e+00	1.014742e-07	
4949	4.942280e-09	1.800000e+00	1.014742e-07	
4950	4.943280e-09	1.800000e+00	1.014742e-07	
4951	4.944280e-09	1.800000e+00	1.014742e-07	
4952	4.945280e-09	1.800000e+00	1.014742e-07	
4953	4.946280e-09	1.800000e+00	1.014742e-07	
4954	4.947280e-09	1.800000e+00	1.014742e-07	
4955	4.948280e-09	1.800000e+00	1.014742e-07	
4956	4.949280e-09	1.800000e+00	1.014742e-07	
4957	4.950280e-09	1.800000e+00	1.014742e-07	
4958	4.951280e-09	1.800000e+00	1.014742e-07	
4959	4.952280e-09	1.800000e+00	1.014742e-07	
4960	4.953280e-09	1.800000e+00	1.014742e-07	
4961	4.954280e-09	1.800000e+00	1.014742e-07	
4962	4.955280e-09	1.800000e+00	1.014742e-07	
4963	4.956280e-09	1.800000e+00	1.014742e-07	
4964	4.957280e-09	1.800000e+00	1.014742e-07	
4965	4.958280e-09	1.800000e+00	1.014742e-07	
4966	4.959280e-09	1.800000e+00	1.014742e-07	
4967	4.960280e-09	1.800000e+00	1.014742e-07	
4968	4.961280e-09	1.800000e+00	1.014742e-07	
4969	4.962280e-09	1.800000e+00	1.014742e-07	
4970	4.963280e-09	1.800000e+00	1.014742e-07	
4971	4.964280e-09	1.800000e+00	1.014742e-07	
4972	4.965280e-09	1.800000e+00	1.014742e-07	
4973	4.966280e-09	1.800000e+00	1.014742e-07	
4974	4.967280e-09	1.800000e+00	1.014742e-07	
4975	4.968280e-09	1.800000e+00	1.014742e-07	
4976	4.969280e-09	1.800000e+00	1.014742e-07	
4977	4.970280e-09	1.800000e+00	1.014742e-07	
4978	4.971280e-09	1.800000e+00	1.014742e-07	
4979	4.972280e-09	1.800000e+00	1.014742e-07	
4980	4.973280e-09	1.800000e+00	1.014742e-07	
4981	4.974280e-09	1.800000e+00	1.014742e-07	
4982	4.975280e-09	1.800000e+00	1.014742e-07	
4983	4.976280e-09	1.800000e+00	1.014742e-07	
4984	4.977280e-09	1.800000e+00	1.014742e-07	

Index   time            v(q)            v(qb)           
--------------------------------------------------------------------------------
4985	4.978280e-09	1.800000e+00	1.014742e-07	
4986	4.979280e-09	1.800000e+00	1.014742e-07	
4987	4.980280e-09	1.800000e+00	1.014742e-07	
4988	4.981280e-09	1.800000e+00	1.014742e-07	
4989	4.982280e-09	1.800000e+00	1.014742e-07	
4990	4.983280e-09	1.800000e+00	1.014742e-07	
4991	4.984280e-09	1.800000e+00	1.014742e-07	
4992	4.985280e-09	1.800000e+00	1.014742e-07	
4993	4.986280e-09	1.800000e+00	1.014742e-07	
4994	4.987280e-09	1.800000e+00	1.014742e-07	
4995	4.988280e-09	1.800000e+00	1.014742e-07	
4996	4.989280e-09	1.800000e+00	1.014742e-07	
4997	4.990280e-09	1.800000e+00	1.014742e-07	
4998	4.991280e-09	1.800000e+00	1.014742e-07	
4999	4.992280e-09	1.800000e+00	1.014742e-07	
5000	4.993280e-09	1.800000e+00	1.014742e-07	
5001	4.994280e-09	1.800000e+00	1.014742e-07	
5002	4.995280e-09	1.800000e+00	1.014742e-07	
5003	4.996280e-09	1.800000e+00	1.014742e-07	
5004	4.997280e-09	1.800000e+00	1.014742e-07	
5005	4.998280e-09	1.800000e+00	1.014742e-07	
5006	4.999280e-09	1.800000e+00	1.014742e-07	
5007	5.000000e-09	1.800000e+00	1.014742e-07	


Total analysis time (seconds) = 0.048

Total elapsed time (seconds) = 7.684 

Total DRAM available = 15700.176 MB.
DRAM currently available = 12811.418 MB.
Maximum ngspice program size =  682.043 MB.
Current ngspice program size =  666.145 MB.

Shared ngspice pages =   10.250 MB.
Text (code) pages =    5.316 MB.
Stack = 0 bytes.
Library pages =  664.094 MB.

