
No compatibility mode selected!


Circuit: * sky130 cmos inverter - dc sweep smoke test

Doing analysis at TEMP = 27.000000 and TNOM = 27.000000


No. of Data Rows : 181
vm                  =   8.53104e-01

                  * sky130 cmos inverter - dc sweep smoke test
                  DC transfer characteristic  Thu May  7 13:07:06  2026
--------------------------------------------------------------------------------
Index   v-sweep         v(in)           v(out)          
--------------------------------------------------------------------------------
0	0.000000e+00	0.000000e+00	1.800000e+00	
1	1.000000e-02	1.000000e-02	1.800000e+00	
2	2.000000e-02	2.000000e-02	1.800000e+00	
3	3.000000e-02	3.000000e-02	1.800000e+00	
4	4.000000e-02	4.000000e-02	1.800000e+00	
5	5.000000e-02	5.000000e-02	1.800000e+00	
6	6.000000e-02	6.000000e-02	1.800000e+00	
7	7.000000e-02	7.000000e-02	1.800000e+00	
8	8.000000e-02	8.000000e-02	1.800000e+00	
9	9.000000e-02	9.000000e-02	1.800000e+00	
10	1.000000e-01	1.000000e-01	1.800000e+00	
11	1.100000e-01	1.100000e-01	1.800000e+00	
12	1.200000e-01	1.200000e-01	1.800000e+00	
13	1.300000e-01	1.300000e-01	1.800000e+00	
14	1.400000e-01	1.400000e-01	1.800000e+00	
15	1.500000e-01	1.500000e-01	1.800000e+00	
16	1.600000e-01	1.600000e-01	1.800000e+00	
17	1.700000e-01	1.700000e-01	1.800000e+00	
18	1.800000e-01	1.800000e-01	1.800000e+00	
19	1.900000e-01	1.900000e-01	1.800000e+00	
20	2.000000e-01	2.000000e-01	1.800000e+00	
21	2.100000e-01	2.100000e-01	1.800000e+00	
22	2.200000e-01	2.200000e-01	1.800000e+00	
23	2.300000e-01	2.300000e-01	1.800000e+00	
24	2.400000e-01	2.400000e-01	1.800000e+00	
25	2.500000e-01	2.500000e-01	1.800000e+00	
26	2.600000e-01	2.600000e-01	1.800000e+00	
27	2.700000e-01	2.700000e-01	1.799999e+00	
28	2.800000e-01	2.800000e-01	1.799999e+00	
29	2.900000e-01	2.900000e-01	1.799999e+00	
30	3.000000e-01	3.000000e-01	1.799999e+00	
31	3.100000e-01	3.100000e-01	1.799998e+00	
32	3.200000e-01	3.200000e-01	1.799998e+00	
33	3.300000e-01	3.300000e-01	1.799997e+00	
34	3.400000e-01	3.400000e-01	1.799996e+00	
35	3.500000e-01	3.500000e-01	1.799995e+00	
36	3.600000e-01	3.600000e-01	1.799993e+00	
37	3.700000e-01	3.700000e-01	1.799991e+00	
38	3.800000e-01	3.800000e-01	1.799988e+00	
39	3.900000e-01	3.900000e-01	1.799984e+00	
40	4.000000e-01	4.000000e-01	1.799979e+00	
41	4.100000e-01	4.100000e-01	1.799972e+00	
42	4.200000e-01	4.200000e-01	1.799964e+00	
43	4.300000e-01	4.300000e-01	1.799952e+00	
44	4.400000e-01	4.400000e-01	1.799937e+00	
45	4.500000e-01	4.500000e-01	1.799917e+00	
46	4.600000e-01	4.600000e-01	1.799892e+00	
47	4.700000e-01	4.700000e-01	1.799858e+00	
48	4.800000e-01	4.800000e-01	1.799814e+00	
49	4.900000e-01	4.900000e-01	1.799756e+00	
50	5.000000e-01	5.000000e-01	1.799681e+00	
51	5.100000e-01	5.100000e-01	1.799584e+00	
52	5.200000e-01	5.200000e-01	1.799458e+00	
53	5.300000e-01	5.300000e-01	1.799296e+00	
54	5.400000e-01	5.400000e-01	1.799087e+00	

Index   v-sweep         v(in)           v(out)          
--------------------------------------------------------------------------------
55	5.500000e-01	5.500000e-01	1.798819e+00	
56	5.600000e-01	5.600000e-01	1.798476e+00	
57	5.700000e-01	5.700000e-01	1.798040e+00	
58	5.800000e-01	5.800000e-01	1.797488e+00	
59	5.900000e-01	5.900000e-01	1.796790e+00	
60	6.000000e-01	6.000000e-01	1.795913e+00	
61	6.100000e-01	6.100000e-01	1.794818e+00	
62	6.200000e-01	6.200000e-01	1.793454e+00	
63	6.300000e-01	6.300000e-01	1.791767e+00	
64	6.400000e-01	6.400000e-01	1.789688e+00	
65	6.500000e-01	6.500000e-01	1.787140e+00	
66	6.600000e-01	6.600000e-01	1.784030e+00	
67	6.700000e-01	6.700000e-01	1.780253e+00	
68	6.800000e-01	6.800000e-01	1.775682e+00	
69	6.900000e-01	6.900000e-01	1.770169e+00	
70	7.000000e-01	7.000000e-01	1.763534e+00	
71	7.100000e-01	7.100000e-01	1.755562e+00	
72	7.200000e-01	7.200000e-01	1.745985e+00	
73	7.300000e-01	7.300000e-01	1.734456e+00	
74	7.400000e-01	7.400000e-01	1.720518e+00	
75	7.500000e-01	7.500000e-01	1.703530e+00	
76	7.600000e-01	7.600000e-01	1.682535e+00	
77	7.700000e-01	7.700000e-01	1.655967e+00	
78	7.800000e-01	7.800000e-01	1.620924e+00	
79	7.900000e-01	7.900000e-01	1.571048e+00	
80	8.000000e-01	8.000000e-01	1.490570e+00	
81	8.100000e-01	8.100000e-01	1.380367e+00	
82	8.200000e-01	8.200000e-01	1.259398e+00	
83	8.300000e-01	8.300000e-01	1.136117e+00	
84	8.400000e-01	8.400000e-01	1.012750e+00	
85	8.500000e-01	8.500000e-01	8.904829e-01	
86	8.600000e-01	8.600000e-01	7.700808e-01	
87	8.700000e-01	8.700000e-01	6.522038e-01	
88	8.800000e-01	8.800000e-01	5.376539e-01	
89	8.900000e-01	8.900000e-01	4.277435e-01	
90	9.000000e-01	9.000000e-01	3.251079e-01	
91	9.100000e-01	9.100000e-01	2.358216e-01	
92	9.200000e-01	9.200000e-01	1.705528e-01	
93	9.300000e-01	9.300000e-01	1.317508e-01	
94	9.400000e-01	9.400000e-01	1.080285e-01	
95	9.500000e-01	9.500000e-01	9.142230e-02	
96	9.600000e-01	9.600000e-01	7.872163e-02	
97	9.700000e-01	9.700000e-01	6.864030e-02	
98	9.800000e-01	9.800000e-01	6.029956e-02	
99	9.900000e-01	9.900000e-01	5.325332e-02	
100	1.000000e+00	1.000000e+00	4.721184e-02	
101	1.010000e+00	1.010000e+00	4.197198e-02	
102	1.020000e+00	1.020000e+00	3.738665e-02	
103	1.030000e+00	1.030000e+00	3.334580e-02	
104	1.040000e+00	1.040000e+00	2.976482e-02	
105	1.050000e+00	1.050000e+00	2.657720e-02	
106	1.060000e+00	1.060000e+00	2.372967e-02	
107	1.070000e+00	1.070000e+00	2.117888e-02	
108	1.080000e+00	1.080000e+00	1.888908e-02	
109	1.090000e+00	1.090000e+00	1.683041e-02	
110	1.100000e+00	1.100000e+00	1.497764e-02	
111	1.110000e+00	1.110000e+00	1.330927e-02	
112	1.120000e+00	1.120000e+00	1.180681e-02	

Index   v-sweep         v(in)           v(out)          
--------------------------------------------------------------------------------
113	1.130000e+00	1.130000e+00	1.045416e-02	
114	1.140000e+00	1.140000e+00	9.237259e-03	
115	1.150000e+00	1.150000e+00	8.143660e-03	
116	1.160000e+00	1.160000e+00	7.162293e-03	
117	1.170000e+00	1.170000e+00	6.283221e-03	
118	1.180000e+00	1.180000e+00	5.497459e-03	
119	1.190000e+00	1.190000e+00	4.796818e-03	
120	1.200000e+00	1.200000e+00	4.173791e-03	
121	1.210000e+00	1.210000e+00	3.621449e-03	
122	1.220000e+00	1.220000e+00	3.133365e-03	
123	1.230000e+00	1.230000e+00	2.703557e-03	
124	1.240000e+00	1.240000e+00	2.326437e-03	
125	1.250000e+00	1.250000e+00	1.996782e-03	
126	1.260000e+00	1.260000e+00	1.709712e-03	
127	1.270000e+00	1.270000e+00	1.460675e-03	
128	1.280000e+00	1.280000e+00	1.245441e-03	
129	1.290000e+00	1.290000e+00	1.060093e-03	
130	1.300000e+00	1.300000e+00	9.010285e-04	
131	1.310000e+00	1.310000e+00	7.649556e-04	
132	1.320000e+00	1.320000e+00	6.488870e-04	
133	1.330000e+00	1.330000e+00	5.501339e-04	
134	1.340000e+00	1.340000e+00	4.662955e-04	
135	1.350000e+00	1.350000e+00	3.952454e-04	
136	1.360000e+00	1.360000e+00	3.351150e-04	
137	1.370000e+00	1.370000e+00	2.842746e-04	
138	1.380000e+00	1.380000e+00	2.413132e-04	
139	1.390000e+00	1.390000e+00	2.050167e-04	
140	1.400000e+00	1.400000e+00	1.743467e-04	
141	1.410000e+00	1.410000e+00	1.484195e-04	
142	1.420000e+00	1.420000e+00	1.264863e-04	
143	1.430000e+00	1.430000e+00	1.079151e-04	
144	1.440000e+00	1.440000e+00	9.217358e-05	
145	1.450000e+00	1.450000e+00	7.881458e-05	
146	1.460000e+00	1.460000e+00	6.746295e-05	
147	1.470000e+00	1.470000e+00	5.780423e-05	
148	1.480000e+00	1.480000e+00	4.957488e-05	
149	1.490000e+00	1.490000e+00	4.255396e-05	
150	1.500000e+00	1.500000e+00	3.655617e-05	
151	1.510000e+00	1.510000e+00	3.142593e-05	
152	1.520000e+00	1.520000e+00	2.703246e-05	
153	1.530000e+00	1.530000e+00	2.326565e-05	
154	1.540000e+00	1.540000e+00	2.003267e-05	
155	1.550000e+00	1.550000e+00	1.725510e-05	
156	1.560000e+00	1.560000e+00	1.486660e-05	
157	1.570000e+00	1.570000e+00	1.281096e-05	
158	1.580000e+00	1.580000e+00	1.104043e-05	
159	1.590000e+00	1.590000e+00	9.514428e-06	
160	1.600000e+00	1.600000e+00	8.198375e-06	
161	1.610000e+00	1.610000e+00	7.062777e-06	
162	1.620000e+00	1.620000e+00	6.082437e-06	
163	1.630000e+00	1.630000e+00	5.235803e-06	
164	1.640000e+00	1.640000e+00	4.504415e-06	
165	1.650000e+00	1.650000e+00	3.872443e-06	
166	1.660000e+00	1.660000e+00	3.326302e-06	
167	1.670000e+00	1.670000e+00	2.854317e-06	
168	1.680000e+00	1.680000e+00	2.446450e-06	
169	1.690000e+00	1.690000e+00	2.094059e-06	
170	1.700000e+00	1.700000e+00	1.789700e-06	

Index   v-sweep         v(in)           v(out)          
--------------------------------------------------------------------------------
171	1.710000e+00	1.710000e+00	1.526958e-06	
172	1.720000e+00	1.720000e+00	1.300294e-06	
173	1.730000e+00	1.730000e+00	1.104926e-06	
174	1.740000e+00	1.740000e+00	9.367205e-07	
175	1.750000e+00	1.750000e+00	7.920987e-07	
176	1.760000e+00	1.760000e+00	6.679597e-07	
177	1.770000e+00	1.770000e+00	5.616117e-07	
178	1.780000e+00	1.780000e+00	4.707142e-07	
179	1.790000e+00	1.790000e+00	3.932280e-07	
180	1.800000e+00	1.800000e+00	3.273727e-07	


Total analysis time (seconds) = 0.002

Total elapsed time (seconds) = 7.653 

Total DRAM available = 15700.176 MB.
DRAM currently available = 13689.770 MB.
Maximum ngspice program size =  682.031 MB.
Current ngspice program size =  666.121 MB.

Shared ngspice pages =   10.250 MB.
Text (code) pages =    5.316 MB.
Stack = 0 bytes.
Library pages =  664.082 MB.

