
No compatibility mode selected!


Circuit: * sky130 6t sram bitcell — read operation

Doing analysis at TEMP = 27.000000 and TNOM = 27.000000


Initial Transient Solution
--------------------------

Node                                   Voltage
----                                   -------
q                                            0
qb                                         1.8
vdd                                        1.8
bl                                         1.8
wl                                           0
blb                                        1.8
vblb#branch                          -1.81e-12
vbl#branch                        -2.04621e-12
vwl#branch                                   0
vdd#branch                        -3.19918e-10


No. of Data Rows : 15020
                  * sky130 6t sram bitcell — read operation
                  Transient Analysis  Sat May  9 13:08:46  2026
--------------------------------------------------------------------------------
Index   time            v(q)            v(qb)           v(bl)           
--------------------------------------------------------------------------------
0	0.000000e+00	0.000000e+00	1.800000e+00	1.800000e+00	
1	1.000000e-14	9.501636e-10	1.800000e+00	1.800000e+00	
2	2.000000e-14	1.742716e-09	1.800000e+00	1.800000e+00	
3	4.000000e-14	3.181961e-09	1.800000e+00	1.800000e+00	
4	8.000000e-14	5.726357e-09	1.800000e+00	1.800000e+00	
5	1.600000e-13	1.055203e-08	1.800000e+00	1.800000e+00	
6	3.200000e-13	1.945713e-08	1.800000e+00	1.800000e+00	
7	6.400000e-13	3.470312e-08	1.800000e+00	1.800000e+00	
8	1.280000e-12	5.714966e-08	1.800000e+00	1.800000e+00	
9	2.280000e-12	7.788117e-08	1.800000e+00	1.800000e+00	
10	3.280000e-12	8.829622e-08	1.800000e+00	1.800000e+00	
11	4.280000e-12	9.357390e-08	1.800000e+00	1.800000e+00	
12	5.280000e-12	9.627496e-08	1.800000e+00	1.800000e+00	
13	6.280000e-12	9.769770e-08	1.800000e+00	1.800000e+00	
14	7.280000e-12	9.846877e-08	1.800000e+00	1.800000e+00	
15	8.280000e-12	9.892133e-08	1.800000e+00	1.800000e+00	
16	9.280000e-12	9.920154e-08	1.800000e+00	1.800000e+00	
17	1.028000e-11	9.940231e-08	1.800000e+00	1.800000e+00	
18	1.128000e-11	9.955061e-08	1.800000e+00	1.800000e+00	
19	1.228000e-11	9.967932e-08	1.800000e+00	1.800000e+00	
20	1.328000e-11	9.978604e-08	1.800000e+00	1.800000e+00	
21	1.428000e-11	9.988838e-08	1.800000e+00	1.800000e+00	
22	1.528000e-11	9.997694e-08	1.800000e+00	1.800000e+00	
23	1.628000e-11	1.000652e-07	1.800000e+00	1.800000e+00	
24	1.728000e-11	1.001423e-07	1.800000e+00	1.800000e+00	
25	1.828000e-11	1.002203e-07	1.800000e+00	1.800000e+00	
26	1.928000e-11	1.002884e-07	1.800000e+00	1.800000e+00	
27	2.028000e-11	1.003579e-07	1.800000e+00	1.800000e+00	
28	2.128000e-11	1.004182e-07	1.800000e+00	1.800000e+00	
29	2.228000e-11	1.004803e-07	1.800000e+00	1.800000e+00	
30	2.328000e-11	1.005337e-07	1.800000e+00	1.800000e+00	
31	2.428000e-11	1.005892e-07	1.800000e+00	1.800000e+00	
32	2.528000e-11	1.006366e-07	1.800000e+00	1.800000e+00	
33	2.628000e-11	1.006862e-07	1.800000e+00	1.800000e+00	
34	2.728000e-11	1.007282e-07	1.800000e+00	1.800000e+00	
35	2.828000e-11	1.007726e-07	1.800000e+00	1.800000e+00	
36	2.928000e-11	1.008178e-07	1.800000e+00	1.800000e+00	
37	3.028000e-11	1.008659e-07	1.800000e+00	1.800000e+00	
38	3.128000e-11	1.009010e-07	1.800000e+00	1.800000e+00	
39	3.228000e-11	1.009366e-07	1.800000e+00	1.800000e+00	
40	3.328000e-11	1.009640e-07	1.800000e+00	1.800000e+00	
41	3.428000e-11	1.009941e-07	1.800000e+00	1.800000e+00	
42	3.528000e-11	1.010175e-07	1.800000e+00	1.800000e+00	
43	3.628000e-11	1.010442e-07	1.800000e+00	1.800000e+00	
44	3.728000e-11	1.010647e-07	1.800000e+00	1.800000e+00	
45	3.828000e-11	1.010887e-07	1.800000e+00	1.800000e+00	
46	3.928000e-11	1.011069e-07	1.800000e+00	1.800000e+00	
47	4.028000e-11	1.011285e-07	1.800000e+00	1.800000e+00	
48	4.128000e-11	1.011446e-07	1.800000e+00	1.800000e+00	
49	4.228000e-11	1.011642e-07	1.800000e+00	1.800000e+00	
50	4.328000e-11	1.011785e-07	1.800000e+00	1.800000e+00	
51	4.428000e-11	1.011962e-07	1.800000e+00	1.800000e+00	
52	4.528000e-11	1.012089e-07	1.800000e+00	1.800000e+00	
53	4.628000e-11	1.012249e-07	1.800000e+00	1.800000e+00	
54	4.728000e-11	1.012362e-07	1.800000e+00	1.800000e+00	

Index   time            v(q)            v(qb)           v(bl)           
--------------------------------------------------------------------------------
55	4.828000e-11	1.012507e-07	1.800000e+00	1.800000e+00	
56	4.928000e-11	1.012606e-07	1.800000e+00	1.800000e+00	
57	5.028000e-11	1.012738e-07	1.800000e+00	1.800000e+00	
58	5.128000e-11	1.012825e-07	1.800000e+00	1.800000e+00	
59	5.228000e-11	1.012945e-07	1.800000e+00	1.800000e+00	
60	5.328000e-11	1.013022e-07	1.800000e+00	1.800000e+00	
61	5.428000e-11	1.013131e-07	1.800000e+00	1.800000e+00	
62	5.528000e-11	1.013199e-07	1.800000e+00	1.800000e+00	
63	5.628000e-11	1.013297e-07	1.800000e+00	1.800000e+00	
64	5.728000e-11	1.013357e-07	1.800000e+00	1.800000e+00	
65	5.828000e-11	1.013447e-07	1.800000e+00	1.800000e+00	
66	5.928000e-11	1.013499e-07	1.800000e+00	1.800000e+00	
67	6.028000e-11	1.013581e-07	1.800000e+00	1.800000e+00	
68	6.128000e-11	1.013627e-07	1.800000e+00	1.800000e+00	
69	6.228000e-11	1.013701e-07	1.800000e+00	1.800000e+00	
70	6.328000e-11	1.013741e-07	1.800000e+00	1.800000e+00	
71	6.428000e-11	1.013809e-07	1.800000e+00	1.800000e+00	
72	6.528000e-11	1.013843e-07	1.800000e+00	1.800000e+00	
73	6.628000e-11	1.013906e-07	1.800000e+00	1.800000e+00	
74	6.728000e-11	1.013935e-07	1.800000e+00	1.800000e+00	
75	6.828000e-11	1.013992e-07	1.800000e+00	1.800000e+00	
76	6.928000e-11	1.014018e-07	1.800000e+00	1.800000e+00	
77	7.028000e-11	1.014070e-07	1.800000e+00	1.800000e+00	
78	7.128000e-11	1.014092e-07	1.800000e+00	1.800000e+00	
79	7.228000e-11	1.014140e-07	1.800000e+00	1.800000e+00	
80	7.328000e-11	1.014159e-07	1.800000e+00	1.800000e+00	
81	7.428000e-11	1.014202e-07	1.800000e+00	1.800000e+00	
82	7.528000e-11	1.014218e-07	1.800000e+00	1.800000e+00	
83	7.628000e-11	1.014258e-07	1.800000e+00	1.800000e+00	
84	7.728000e-11	1.014272e-07	1.800000e+00	1.800000e+00	
85	7.828000e-11	1.014309e-07	1.800000e+00	1.800000e+00	
86	7.928000e-11	1.014320e-07	1.800000e+00	1.800000e+00	
87	8.028000e-11	1.014354e-07	1.800000e+00	1.800000e+00	
88	8.128000e-11	1.014363e-07	1.800000e+00	1.800000e+00	
89	8.228000e-11	1.014394e-07	1.800000e+00	1.800000e+00	
90	8.328000e-11	1.014401e-07	1.800000e+00	1.800000e+00	
91	8.428000e-11	1.014430e-07	1.800000e+00	1.800000e+00	
92	8.528000e-11	1.014436e-07	1.800000e+00	1.800000e+00	
93	8.628000e-11	1.014463e-07	1.800000e+00	1.800000e+00	
94	8.728000e-11	1.014467e-07	1.800000e+00	1.800000e+00	
95	8.828000e-11	1.014492e-07	1.800000e+00	1.800000e+00	
96	8.928000e-11	1.014495e-07	1.800000e+00	1.800000e+00	
97	9.028000e-11	1.014518e-07	1.800000e+00	1.800000e+00	
98	9.128000e-11	1.014520e-07	1.800000e+00	1.800000e+00	
99	9.228000e-11	1.014542e-07	1.800000e+00	1.800000e+00	
100	9.328000e-11	1.014543e-07	1.800000e+00	1.800000e+00	
101	9.428000e-11	1.014563e-07	1.800000e+00	1.800000e+00	
102	9.528000e-11	1.014563e-07	1.800000e+00	1.800000e+00	
103	9.628000e-11	1.014581e-07	1.800000e+00	1.800000e+00	
104	9.728000e-11	1.014581e-07	1.800000e+00	1.800000e+00	
105	9.828000e-11	1.014598e-07	1.800000e+00	1.800000e+00	
106	9.928000e-11	1.014597e-07	1.800000e+00	1.800000e+00	
107	1.002800e-10	1.014613e-07	1.800000e+00	1.800000e+00	
108	1.012800e-10	1.014612e-07	1.800000e+00	1.800000e+00	
109	1.022800e-10	1.014627e-07	1.800000e+00	1.800000e+00	
110	1.032800e-10	1.014625e-07	1.800000e+00	1.800000e+00	
111	1.042800e-10	1.014639e-07	1.800000e+00	1.800000e+00	
112	1.052800e-10	1.014637e-07	1.800000e+00	1.800000e+00	

Index   time            v(q)            v(qb)           v(bl)           
--------------------------------------------------------------------------------
113	1.062800e-10	1.014650e-07	1.800000e+00	1.800000e+00	
114	1.072800e-10	1.014647e-07	1.800000e+00	1.800000e+00	
115	1.082800e-10	1.014660e-07	1.800000e+00	1.800000e+00	
116	1.092800e-10	1.014657e-07	1.800000e+00	1.800000e+00	
117	1.102800e-10	1.014668e-07	1.800000e+00	1.800000e+00	
118	1.112800e-10	1.014665e-07	1.800000e+00	1.800000e+00	
119	1.122800e-10	1.014676e-07	1.800000e+00	1.800000e+00	
120	1.132800e-10	1.014673e-07	1.800000e+00	1.800000e+00	
121	1.142800e-10	1.014683e-07	1.800000e+00	1.800000e+00	
122	1.152800e-10	1.014680e-07	1.800000e+00	1.800000e+00	
123	1.162800e-10	1.014690e-07	1.800000e+00	1.800000e+00	
124	1.172800e-10	1.014686e-07	1.800000e+00	1.800000e+00	
125	1.182800e-10	1.014695e-07	1.800000e+00	1.800000e+00	
126	1.192800e-10	1.014691e-07	1.800000e+00	1.800000e+00	
127	1.202800e-10	1.014700e-07	1.800000e+00	1.800000e+00	
128	1.212800e-10	1.014696e-07	1.800000e+00	1.800000e+00	
129	1.222800e-10	1.014705e-07	1.800000e+00	1.800000e+00	
130	1.232800e-10	1.014701e-07	1.800000e+00	1.800000e+00	
131	1.242800e-10	1.014709e-07	1.800000e+00	1.800000e+00	
132	1.252800e-10	1.014705e-07	1.800000e+00	1.800000e+00	
133	1.262800e-10	1.014713e-07	1.800000e+00	1.800000e+00	
134	1.272800e-10	1.014708e-07	1.800000e+00	1.800000e+00	
135	1.282800e-10	1.014716e-07	1.800000e+00	1.800000e+00	
136	1.292800e-10	1.014712e-07	1.800000e+00	1.800000e+00	
137	1.302800e-10	1.014719e-07	1.800000e+00	1.800000e+00	
138	1.312800e-10	1.014715e-07	1.800000e+00	1.800000e+00	
139	1.322800e-10	1.014721e-07	1.800000e+00	1.800000e+00	
140	1.332800e-10	1.014717e-07	1.800000e+00	1.800000e+00	
141	1.342800e-10	1.014724e-07	1.800000e+00	1.800000e+00	
142	1.352800e-10	1.014720e-07	1.800000e+00	1.800000e+00	
143	1.362800e-10	1.014726e-07	1.800000e+00	1.800000e+00	
144	1.372800e-10	1.014722e-07	1.800000e+00	1.800000e+00	
145	1.382800e-10	1.014728e-07	1.800000e+00	1.800000e+00	
146	1.392800e-10	1.014724e-07	1.800000e+00	1.800000e+00	
147	1.402800e-10	1.014729e-07	1.800000e+00	1.800000e+00	
148	1.412800e-10	1.014725e-07	1.800000e+00	1.800000e+00	
149	1.422800e-10	1.014731e-07	1.800000e+00	1.800000e+00	
150	1.432800e-10	1.014727e-07	1.800000e+00	1.800000e+00	
151	1.442800e-10	1.014732e-07	1.800000e+00	1.800000e+00	
152	1.452800e-10	1.014728e-07	1.800000e+00	1.800000e+00	
153	1.462800e-10	1.014733e-07	1.800000e+00	1.800000e+00	
154	1.472800e-10	1.014729e-07	1.800000e+00	1.800000e+00	
155	1.482800e-10	1.014734e-07	1.800000e+00	1.800000e+00	
156	1.492800e-10	1.014731e-07	1.800000e+00	1.800000e+00	
157	1.502800e-10	1.014735e-07	1.800000e+00	1.800000e+00	
158	1.512800e-10	1.014732e-07	1.800000e+00	1.800000e+00	
159	1.522800e-10	1.014736e-07	1.800000e+00	1.800000e+00	
160	1.532800e-10	1.014732e-07	1.800000e+00	1.800000e+00	
161	1.542800e-10	1.014737e-07	1.800000e+00	1.800000e+00	
162	1.552800e-10	1.014733e-07	1.800000e+00	1.800000e+00	
163	1.562800e-10	1.014738e-07	1.800000e+00	1.800000e+00	
164	1.572800e-10	1.014734e-07	1.800000e+00	1.800000e+00	
165	1.582800e-10	1.014738e-07	1.800000e+00	1.800000e+00	
166	1.592800e-10	1.014735e-07	1.800000e+00	1.800000e+00	
167	1.602800e-10	1.014739e-07	1.800000e+00	1.800000e+00	
168	1.612800e-10	1.014735e-07	1.800000e+00	1.800000e+00	
169	1.622800e-10	1.014739e-07	1.800000e+00	1.800000e+00	
170	1.632800e-10	1.014736e-07	1.800000e+00	1.800000e+00	

Index   time            v(q)            v(qb)           v(bl)           
--------------------------------------------------------------------------------
171	1.642800e-10	1.014740e-07	1.800000e+00	1.800000e+00	
172	1.652800e-10	1.014736e-07	1.800000e+00	1.800000e+00	
173	1.662800e-10	1.014740e-07	1.800000e+00	1.800000e+00	
174	1.672800e-10	1.014737e-07	1.800000e+00	1.800000e+00	
175	1.682800e-10	1.014740e-07	1.800000e+00	1.800000e+00	
176	1.692800e-10	1.014737e-07	1.800000e+00	1.800000e+00	
177	1.702800e-10	1.014741e-07	1.800000e+00	1.800000e+00	
178	1.712800e-10	1.014738e-07	1.800000e+00	1.800000e+00	
179	1.722800e-10	1.014741e-07	1.800000e+00	1.800000e+00	
180	1.732800e-10	1.014738e-07	1.800000e+00	1.800000e+00	
181	1.742800e-10	1.014741e-07	1.800000e+00	1.800000e+00	
182	1.752800e-10	1.014738e-07	1.800000e+00	1.800000e+00	
183	1.762800e-10	1.014741e-07	1.800000e+00	1.800000e+00	
184	1.772800e-10	1.014738e-07	1.800000e+00	1.800000e+00	
185	1.782800e-10	1.014741e-07	1.800000e+00	1.800000e+00	
186	1.792800e-10	1.014739e-07	1.800000e+00	1.800000e+00	
187	1.802800e-10	1.014742e-07	1.800000e+00	1.800000e+00	
188	1.812800e-10	1.014739e-07	1.800000e+00	1.800000e+00	
189	1.822800e-10	1.014742e-07	1.800000e+00	1.800000e+00	
190	1.832800e-10	1.014739e-07	1.800000e+00	1.800000e+00	
191	1.842800e-10	1.014742e-07	1.800000e+00	1.800000e+00	
192	1.852800e-10	1.014739e-07	1.800000e+00	1.800000e+00	
193	1.862800e-10	1.014742e-07	1.800000e+00	1.800000e+00	
194	1.872800e-10	1.014739e-07	1.800000e+00	1.800000e+00	
195	1.882800e-10	1.014742e-07	1.800000e+00	1.800000e+00	
196	1.892800e-10	1.014740e-07	1.800000e+00	1.800000e+00	
197	1.902800e-10	1.014742e-07	1.800000e+00	1.800000e+00	
198	1.912800e-10	1.014740e-07	1.800000e+00	1.800000e+00	
199	1.922800e-10	1.014742e-07	1.800000e+00	1.800000e+00	
200	1.932800e-10	1.014740e-07	1.800000e+00	1.800000e+00	
201	1.942800e-10	1.014742e-07	1.800000e+00	1.800000e+00	
202	1.952800e-10	1.014740e-07	1.800000e+00	1.800000e+00	
203	1.962800e-10	1.014742e-07	1.800000e+00	1.800000e+00	
204	1.972800e-10	1.014740e-07	1.800000e+00	1.800000e+00	
205	1.982800e-10	1.014742e-07	1.800000e+00	1.800000e+00	
206	1.992800e-10	1.014740e-07	1.800000e+00	1.800000e+00	
207	2.002800e-10	1.014742e-07	1.800000e+00	1.800000e+00	
208	2.012800e-10	1.014740e-07	1.800000e+00	1.800000e+00	
209	2.022800e-10	1.014742e-07	1.800000e+00	1.800000e+00	
210	2.032800e-10	1.014740e-07	1.800000e+00	1.800000e+00	
211	2.042800e-10	1.014742e-07	1.800000e+00	1.800000e+00	
212	2.052800e-10	1.014740e-07	1.800000e+00	1.800000e+00	
213	2.062800e-10	1.014742e-07	1.800000e+00	1.800000e+00	
214	2.072800e-10	1.014741e-07	1.800000e+00	1.800000e+00	
215	2.082800e-10	1.014743e-07	1.800000e+00	1.800000e+00	
216	2.092800e-10	1.014741e-07	1.800000e+00	1.800000e+00	
217	2.102800e-10	1.014743e-07	1.800000e+00	1.800000e+00	
218	2.112800e-10	1.014741e-07	1.800000e+00	1.800000e+00	
219	2.122800e-10	1.014743e-07	1.800000e+00	1.800000e+00	
220	2.132800e-10	1.014741e-07	1.800000e+00	1.800000e+00	
221	2.142800e-10	1.014743e-07	1.800000e+00	1.800000e+00	
222	2.152800e-10	1.014741e-07	1.800000e+00	1.800000e+00	
223	2.162800e-10	1.014743e-07	1.800000e+00	1.800000e+00	
224	2.172800e-10	1.014741e-07	1.800000e+00	1.800000e+00	
225	2.182800e-10	1.014743e-07	1.800000e+00	1.800000e+00	
226	2.192800e-10	1.014741e-07	1.800000e+00	1.800000e+00	
227	2.202800e-10	1.014743e-07	1.800000e+00	1.800000e+00	
228	2.212800e-10	1.014741e-07	1.800000e+00	1.800000e+00	

Index   time            v(q)            v(qb)           v(bl)           
--------------------------------------------------------------------------------
229	2.222800e-10	1.014743e-07	1.800000e+00	1.800000e+00	
230	2.232800e-10	1.014741e-07	1.800000e+00	1.800000e+00	
231	2.242800e-10	1.014743e-07	1.800000e+00	1.800000e+00	
232	2.252800e-10	1.014741e-07	1.800000e+00	1.800000e+00	
233	2.262800e-10	1.014743e-07	1.800000e+00	1.800000e+00	
234	2.272800e-10	1.014741e-07	1.800000e+00	1.800000e+00	
235	2.282800e-10	1.014743e-07	1.800000e+00	1.800000e+00	
236	2.292800e-10	1.014741e-07	1.800000e+00	1.800000e+00	
237	2.302800e-10	1.014743e-07	1.800000e+00	1.800000e+00	
238	2.312800e-10	1.014741e-07	1.800000e+00	1.800000e+00	
239	2.322800e-10	1.014743e-07	1.800000e+00	1.800000e+00	
240	2.332800e-10	1.014741e-07	1.800000e+00	1.800000e+00	
241	2.342800e-10	1.014743e-07	1.800000e+00	1.800000e+00	
242	2.352800e-10	1.014741e-07	1.800000e+00	1.800000e+00	
243	2.362800e-10	1.014743e-07	1.800000e+00	1.800000e+00	
244	2.372800e-10	1.014741e-07	1.800000e+00	1.800000e+00	
245	2.382800e-10	1.014742e-07	1.800000e+00	1.800000e+00	
246	2.392800e-10	1.014741e-07	1.800000e+00	1.800000e+00	
247	2.402800e-10	1.014742e-07	1.800000e+00	1.800000e+00	
248	2.412800e-10	1.014741e-07	1.800000e+00	1.800000e+00	
249	2.422800e-10	1.014742e-07	1.800000e+00	1.800000e+00	
250	2.432800e-10	1.014741e-07	1.800000e+00	1.800000e+00	
251	2.442800e-10	1.014742e-07	1.800000e+00	1.800000e+00	
252	2.452800e-10	1.014741e-07	1.800000e+00	1.800000e+00	
253	2.462800e-10	1.014742e-07	1.800000e+00	1.800000e+00	
254	2.472800e-10	1.014741e-07	1.800000e+00	1.800000e+00	
255	2.482800e-10	1.014742e-07	1.800000e+00	1.800000e+00	
256	2.492800e-10	1.014741e-07	1.800000e+00	1.800000e+00	
257	2.502800e-10	1.014742e-07	1.800000e+00	1.800000e+00	
258	2.512800e-10	1.014741e-07	1.800000e+00	1.800000e+00	
259	2.522800e-10	1.014742e-07	1.800000e+00	1.800000e+00	
260	2.532800e-10	1.014741e-07	1.800000e+00	1.800000e+00	
261	2.542800e-10	1.014742e-07	1.800000e+00	1.800000e+00	
262	2.552800e-10	1.014741e-07	1.800000e+00	1.800000e+00	
263	2.562800e-10	1.014742e-07	1.800000e+00	1.800000e+00	
264	2.572800e-10	1.014741e-07	1.800000e+00	1.800000e+00	
265	2.582800e-10	1.014742e-07	1.800000e+00	1.800000e+00	
266	2.592800e-10	1.014741e-07	1.800000e+00	1.800000e+00	
267	2.602800e-10	1.014742e-07	1.800000e+00	1.800000e+00	
268	2.612800e-10	1.014741e-07	1.800000e+00	1.800000e+00	
269	2.622800e-10	1.014742e-07	1.800000e+00	1.800000e+00	
270	2.632800e-10	1.014741e-07	1.800000e+00	1.800000e+00	
271	2.642800e-10	1.014742e-07	1.800000e+00	1.800000e+00	
272	2.652800e-10	1.014741e-07	1.800000e+00	1.800000e+00	
273	2.662800e-10	1.014742e-07	1.800000e+00	1.800000e+00	
274	2.672800e-10	1.014741e-07	1.800000e+00	1.800000e+00	
275	2.682800e-10	1.014742e-07	1.800000e+00	1.800000e+00	
276	2.692800e-10	1.014741e-07	1.800000e+00	1.800000e+00	
277	2.702800e-10	1.014742e-07	1.800000e+00	1.800000e+00	
278	2.712800e-10	1.014741e-07	1.800000e+00	1.800000e+00	
279	2.722800e-10	1.014742e-07	1.800000e+00	1.800000e+00	
280	2.732800e-10	1.014741e-07	1.800000e+00	1.800000e+00	
281	2.742800e-10	1.014742e-07	1.800000e+00	1.800000e+00	
282	2.752800e-10	1.014741e-07	1.800000e+00	1.800000e+00	
283	2.762800e-10	1.014742e-07	1.800000e+00	1.800000e+00	
284	2.772800e-10	1.014742e-07	1.800000e+00	1.800000e+00	
285	2.782800e-10	1.014742e-07	1.800000e+00	1.800000e+00	
286	2.792800e-10	1.014742e-07	1.800000e+00	1.800000e+00	

Index   time            v(q)            v(qb)           v(bl)           
--------------------------------------------------------------------------------
287	2.802800e-10	1.014742e-07	1.800000e+00	1.800000e+00	
288	2.812800e-10	1.014742e-07	1.800000e+00	1.800000e+00	
289	2.822800e-10	1.014742e-07	1.800000e+00	1.800000e+00	
290	2.832800e-10	1.014742e-07	1.800000e+00	1.800000e+00	
291	2.842800e-10	1.014742e-07	1.800000e+00	1.800000e+00	
292	2.852800e-10	1.014742e-07	1.800000e+00	1.800000e+00	
293	2.862800e-10	1.014742e-07	1.800000e+00	1.800000e+00	
294	2.872800e-10	1.014742e-07	1.800000e+00	1.800000e+00	
295	2.882800e-10	1.014742e-07	1.800000e+00	1.800000e+00	
296	2.892800e-10	1.014742e-07	1.800000e+00	1.800000e+00	
297	2.902800e-10	1.014742e-07	1.800000e+00	1.800000e+00	
298	2.912800e-10	1.014742e-07	1.800000e+00	1.800000e+00	
299	2.922800e-10	1.014742e-07	1.800000e+00	1.800000e+00	
300	2.932800e-10	1.014742e-07	1.800000e+00	1.800000e+00	
301	2.942800e-10	1.014742e-07	1.800000e+00	1.800000e+00	
302	2.952800e-10	1.014742e-07	1.800000e+00	1.800000e+00	
303	2.962800e-10	1.014742e-07	1.800000e+00	1.800000e+00	
304	2.972800e-10	1.014742e-07	1.800000e+00	1.800000e+00	
305	2.982800e-10	1.014742e-07	1.800000e+00	1.800000e+00	
306	2.992800e-10	1.014742e-07	1.800000e+00	1.800000e+00	
307	3.002800e-10	1.014742e-07	1.800000e+00	1.800000e+00	
308	3.012800e-10	1.014742e-07	1.800000e+00	1.800000e+00	
309	3.022800e-10	1.014742e-07	1.800000e+00	1.800000e+00	
310	3.032800e-10	1.014742e-07	1.800000e+00	1.800000e+00	
311	3.042800e-10	1.014742e-07	1.800000e+00	1.800000e+00	
312	3.052800e-10	1.014742e-07	1.800000e+00	1.800000e+00	
313	3.062800e-10	1.014742e-07	1.800000e+00	1.800000e+00	
314	3.072800e-10	1.014742e-07	1.800000e+00	1.800000e+00	
315	3.082800e-10	1.014742e-07	1.800000e+00	1.800000e+00	
316	3.092800e-10	1.014742e-07	1.800000e+00	1.800000e+00	
317	3.102800e-10	1.014742e-07	1.800000e+00	1.800000e+00	
318	3.112800e-10	1.014742e-07	1.800000e+00	1.800000e+00	
319	3.122800e-10	1.014742e-07	1.800000e+00	1.800000e+00	
320	3.132800e-10	1.014742e-07	1.800000e+00	1.800000e+00	
321	3.142800e-10	1.014742e-07	1.800000e+00	1.800000e+00	
322	3.152800e-10	1.014742e-07	1.800000e+00	1.800000e+00	
323	3.162800e-10	1.014742e-07	1.800000e+00	1.800000e+00	
324	3.172800e-10	1.014742e-07	1.800000e+00	1.800000e+00	
325	3.182800e-10	1.014742e-07	1.800000e+00	1.800000e+00	
326	3.192800e-10	1.014742e-07	1.800000e+00	1.800000e+00	
327	3.202800e-10	1.014742e-07	1.800000e+00	1.800000e+00	
328	3.212800e-10	1.014742e-07	1.800000e+00	1.800000e+00	
329	3.222800e-10	1.014742e-07	1.800000e+00	1.800000e+00	
330	3.232800e-10	1.014742e-07	1.800000e+00	1.800000e+00	
331	3.242800e-10	1.014742e-07	1.800000e+00	1.800000e+00	
332	3.252800e-10	1.014742e-07	1.800000e+00	1.800000e+00	
333	3.262800e-10	1.014742e-07	1.800000e+00	1.800000e+00	
334	3.272800e-10	1.014742e-07	1.800000e+00	1.800000e+00	
335	3.282800e-10	1.014742e-07	1.800000e+00	1.800000e+00	
336	3.292800e-10	1.014742e-07	1.800000e+00	1.800000e+00	
337	3.302800e-10	1.014742e-07	1.800000e+00	1.800000e+00	
338	3.312800e-10	1.014742e-07	1.800000e+00	1.800000e+00	
339	3.322800e-10	1.014742e-07	1.800000e+00	1.800000e+00	
340	3.332800e-10	1.014742e-07	1.800000e+00	1.800000e+00	
341	3.342800e-10	1.014742e-07	1.800000e+00	1.800000e+00	
342	3.352800e-10	1.014742e-07	1.800000e+00	1.800000e+00	
343	3.362800e-10	1.014742e-07	1.800000e+00	1.800000e+00	
344	3.372800e-10	1.014742e-07	1.800000e+00	1.800000e+00	

Index   time            v(q)            v(qb)           v(bl)           
--------------------------------------------------------------------------------
345	3.382800e-10	1.014742e-07	1.800000e+00	1.800000e+00	
346	3.392800e-10	1.014742e-07	1.800000e+00	1.800000e+00	
347	3.402800e-10	1.014742e-07	1.800000e+00	1.800000e+00	
348	3.412800e-10	1.014742e-07	1.800000e+00	1.800000e+00	
349	3.422800e-10	1.014742e-07	1.800000e+00	1.800000e+00	
350	3.432800e-10	1.014742e-07	1.800000e+00	1.800000e+00	
351	3.442800e-10	1.014742e-07	1.800000e+00	1.800000e+00	
352	3.452800e-10	1.014742e-07	1.800000e+00	1.800000e+00	
353	3.462800e-10	1.014742e-07	1.800000e+00	1.800000e+00	
354	3.472800e-10	1.014742e-07	1.800000e+00	1.800000e+00	
355	3.482800e-10	1.014742e-07	1.800000e+00	1.800000e+00	
356	3.492800e-10	1.014742e-07	1.800000e+00	1.800000e+00	
357	3.502800e-10	1.014742e-07	1.800000e+00	1.800000e+00	
358	3.512800e-10	1.014742e-07	1.800000e+00	1.800000e+00	
359	3.522800e-10	1.014742e-07	1.800000e+00	1.800000e+00	
360	3.532800e-10	1.014742e-07	1.800000e+00	1.800000e+00	
361	3.542800e-10	1.014742e-07	1.800000e+00	1.800000e+00	
362	3.552800e-10	1.014742e-07	1.800000e+00	1.800000e+00	
363	3.562800e-10	1.014742e-07	1.800000e+00	1.800000e+00	
364	3.572800e-10	1.014742e-07	1.800000e+00	1.800000e+00	
365	3.582800e-10	1.014742e-07	1.800000e+00	1.800000e+00	
366	3.592800e-10	1.014742e-07	1.800000e+00	1.800000e+00	
367	3.602800e-10	1.014742e-07	1.800000e+00	1.800000e+00	
368	3.612800e-10	1.014742e-07	1.800000e+00	1.800000e+00	
369	3.622800e-10	1.014742e-07	1.800000e+00	1.800000e+00	
370	3.632800e-10	1.014742e-07	1.800000e+00	1.800000e+00	
371	3.642800e-10	1.014742e-07	1.800000e+00	1.800000e+00	
372	3.652800e-10	1.014742e-07	1.800000e+00	1.800000e+00	
373	3.662800e-10	1.014742e-07	1.800000e+00	1.800000e+00	
374	3.672800e-10	1.014742e-07	1.800000e+00	1.800000e+00	
375	3.682800e-10	1.014742e-07	1.800000e+00	1.800000e+00	
376	3.692800e-10	1.014742e-07	1.800000e+00	1.800000e+00	
377	3.702800e-10	1.014742e-07	1.800000e+00	1.800000e+00	
378	3.712800e-10	1.014742e-07	1.800000e+00	1.800000e+00	
379	3.722800e-10	1.014742e-07	1.800000e+00	1.800000e+00	
380	3.732800e-10	1.014742e-07	1.800000e+00	1.800000e+00	
381	3.742800e-10	1.014742e-07	1.800000e+00	1.800000e+00	
382	3.752800e-10	1.014742e-07	1.800000e+00	1.800000e+00	
383	3.762800e-10	1.014742e-07	1.800000e+00	1.800000e+00	
384	3.772800e-10	1.014742e-07	1.800000e+00	1.800000e+00	
385	3.782800e-10	1.014742e-07	1.800000e+00	1.800000e+00	
386	3.792800e-10	1.014742e-07	1.800000e+00	1.800000e+00	
387	3.802800e-10	1.014742e-07	1.800000e+00	1.800000e+00	
388	3.812800e-10	1.014742e-07	1.800000e+00	1.800000e+00	
389	3.822800e-10	1.014742e-07	1.800000e+00	1.800000e+00	
390	3.832800e-10	1.014742e-07	1.800000e+00	1.800000e+00	
391	3.842800e-10	1.014742e-07	1.800000e+00	1.800000e+00	
392	3.852800e-10	1.014742e-07	1.800000e+00	1.800000e+00	
393	3.862800e-10	1.014742e-07	1.800000e+00	1.800000e+00	
394	3.872800e-10	1.014742e-07	1.800000e+00	1.800000e+00	
395	3.882800e-10	1.014742e-07	1.800000e+00	1.800000e+00	
396	3.892800e-10	1.014742e-07	1.800000e+00	1.800000e+00	
397	3.902800e-10	1.014742e-07	1.800000e+00	1.800000e+00	
398	3.912800e-10	1.014742e-07	1.800000e+00	1.800000e+00	
399	3.922800e-10	1.014742e-07	1.800000e+00	1.800000e+00	
400	3.932800e-10	1.014742e-07	1.800000e+00	1.800000e+00	
401	3.942800e-10	1.014742e-07	1.800000e+00	1.800000e+00	
402	3.952800e-10	1.014742e-07	1.800000e+00	1.800000e+00	

Index   time            v(q)            v(qb)           v(bl)           
--------------------------------------------------------------------------------
403	3.962800e-10	1.014742e-07	1.800000e+00	1.800000e+00	
404	3.972800e-10	1.014742e-07	1.800000e+00	1.800000e+00	
405	3.982800e-10	1.014742e-07	1.800000e+00	1.800000e+00	
406	3.992800e-10	1.014742e-07	1.800000e+00	1.800000e+00	
407	4.002800e-10	1.014742e-07	1.800000e+00	1.800000e+00	
408	4.012800e-10	1.014742e-07	1.800000e+00	1.800000e+00	
409	4.022800e-10	1.014742e-07	1.800000e+00	1.800000e+00	
410	4.032800e-10	1.014742e-07	1.800000e+00	1.800000e+00	
411	4.042800e-10	1.014742e-07	1.800000e+00	1.800000e+00	
412	4.052800e-10	1.014742e-07	1.800000e+00	1.800000e+00	
413	4.062800e-10	1.014742e-07	1.800000e+00	1.800000e+00	
414	4.072800e-10	1.014742e-07	1.800000e+00	1.800000e+00	
415	4.082800e-10	1.014742e-07	1.800000e+00	1.800000e+00	
416	4.092800e-10	1.014742e-07	1.800000e+00	1.800000e+00	
417	4.102800e-10	1.014742e-07	1.800000e+00	1.800000e+00	
418	4.112800e-10	1.014742e-07	1.800000e+00	1.800000e+00	
419	4.122800e-10	1.014742e-07	1.800000e+00	1.800000e+00	
420	4.132800e-10	1.014742e-07	1.800000e+00	1.800000e+00	
421	4.142800e-10	1.014742e-07	1.800000e+00	1.800000e+00	
422	4.152800e-10	1.014742e-07	1.800000e+00	1.800000e+00	
423	4.162800e-10	1.014742e-07	1.800000e+00	1.800000e+00	
424	4.172800e-10	1.014742e-07	1.800000e+00	1.800000e+00	
425	4.182800e-10	1.014742e-07	1.800000e+00	1.800000e+00	
426	4.192800e-10	1.014742e-07	1.800000e+00	1.800000e+00	
427	4.202800e-10	1.014742e-07	1.800000e+00	1.800000e+00	
428	4.212800e-10	1.014742e-07	1.800000e+00	1.800000e+00	
429	4.222800e-10	1.014742e-07	1.800000e+00	1.800000e+00	
430	4.232800e-10	1.014742e-07	1.800000e+00	1.800000e+00	
431	4.242800e-10	1.014742e-07	1.800000e+00	1.800000e+00	
432	4.252800e-10	1.014742e-07	1.800000e+00	1.800000e+00	
433	4.262800e-10	1.014742e-07	1.800000e+00	1.800000e+00	
434	4.272800e-10	1.014742e-07	1.800000e+00	1.800000e+00	
435	4.282800e-10	1.014742e-07	1.800000e+00	1.800000e+00	
436	4.292800e-10	1.014742e-07	1.800000e+00	1.800000e+00	
437	4.302800e-10	1.014742e-07	1.800000e+00	1.800000e+00	
438	4.312800e-10	1.014742e-07	1.800000e+00	1.800000e+00	
439	4.322800e-10	1.014742e-07	1.800000e+00	1.800000e+00	
440	4.332800e-10	1.014742e-07	1.800000e+00	1.800000e+00	
441	4.342800e-10	1.014742e-07	1.800000e+00	1.800000e+00	
442	4.352800e-10	1.014742e-07	1.800000e+00	1.800000e+00	
443	4.362800e-10	1.014742e-07	1.800000e+00	1.800000e+00	
444	4.372800e-10	1.014742e-07	1.800000e+00	1.800000e+00	
445	4.382800e-10	1.014742e-07	1.800000e+00	1.800000e+00	
446	4.392800e-10	1.014742e-07	1.800000e+00	1.800000e+00	
447	4.402800e-10	1.014742e-07	1.800000e+00	1.800000e+00	
448	4.412800e-10	1.014742e-07	1.800000e+00	1.800000e+00	
449	4.422800e-10	1.014742e-07	1.800000e+00	1.800000e+00	
450	4.432800e-10	1.014742e-07	1.800000e+00	1.800000e+00	
451	4.442800e-10	1.014742e-07	1.800000e+00	1.800000e+00	
452	4.452800e-10	1.014742e-07	1.800000e+00	1.800000e+00	
453	4.462800e-10	1.014742e-07	1.800000e+00	1.800000e+00	
454	4.472800e-10	1.014742e-07	1.800000e+00	1.800000e+00	
455	4.482800e-10	1.014742e-07	1.800000e+00	1.800000e+00	
456	4.492800e-10	1.014742e-07	1.800000e+00	1.800000e+00	
457	4.502800e-10	1.014742e-07	1.800000e+00	1.800000e+00	
458	4.512800e-10	1.014742e-07	1.800000e+00	1.800000e+00	
459	4.522800e-10	1.014742e-07	1.800000e+00	1.800000e+00	
460	4.532800e-10	1.014742e-07	1.800000e+00	1.800000e+00	

Index   time            v(q)            v(qb)           v(bl)           
--------------------------------------------------------------------------------
461	4.542800e-10	1.014742e-07	1.800000e+00	1.800000e+00	
462	4.552800e-10	1.014742e-07	1.800000e+00	1.800000e+00	
463	4.562800e-10	1.014742e-07	1.800000e+00	1.800000e+00	
464	4.572800e-10	1.014742e-07	1.800000e+00	1.800000e+00	
465	4.582800e-10	1.014742e-07	1.800000e+00	1.800000e+00	
466	4.592800e-10	1.014742e-07	1.800000e+00	1.800000e+00	
467	4.602800e-10	1.014742e-07	1.800000e+00	1.800000e+00	
468	4.612800e-10	1.014742e-07	1.800000e+00	1.800000e+00	
469	4.622800e-10	1.014742e-07	1.800000e+00	1.800000e+00	
470	4.632800e-10	1.014742e-07	1.800000e+00	1.800000e+00	
471	4.642800e-10	1.014742e-07	1.800000e+00	1.800000e+00	
472	4.652800e-10	1.014742e-07	1.800000e+00	1.800000e+00	
473	4.662800e-10	1.014742e-07	1.800000e+00	1.800000e+00	
474	4.672800e-10	1.014742e-07	1.800000e+00	1.800000e+00	
475	4.682800e-10	1.014742e-07	1.800000e+00	1.800000e+00	
476	4.692800e-10	1.014742e-07	1.800000e+00	1.800000e+00	
477	4.702800e-10	1.014742e-07	1.800000e+00	1.800000e+00	
478	4.712800e-10	1.014742e-07	1.800000e+00	1.800000e+00	
479	4.722800e-10	1.014742e-07	1.800000e+00	1.800000e+00	
480	4.732800e-10	1.014742e-07	1.800000e+00	1.800000e+00	
481	4.742800e-10	1.014742e-07	1.800000e+00	1.800000e+00	
482	4.752800e-10	1.014742e-07	1.800000e+00	1.800000e+00	
483	4.762800e-10	1.014742e-07	1.800000e+00	1.800000e+00	
484	4.772800e-10	1.014742e-07	1.800000e+00	1.800000e+00	
485	4.782800e-10	1.014742e-07	1.800000e+00	1.800000e+00	
486	4.792800e-10	1.014742e-07	1.800000e+00	1.800000e+00	
487	4.802800e-10	1.014742e-07	1.800000e+00	1.800000e+00	
488	4.812800e-10	1.014742e-07	1.800000e+00	1.800000e+00	
489	4.822800e-10	1.014742e-07	1.800000e+00	1.800000e+00	
490	4.832800e-10	1.014742e-07	1.800000e+00	1.800000e+00	
491	4.842800e-10	1.014742e-07	1.800000e+00	1.800000e+00	
492	4.852800e-10	1.014742e-07	1.800000e+00	1.800000e+00	
493	4.862800e-10	1.014742e-07	1.800000e+00	1.800000e+00	
494	4.872800e-10	1.014742e-07	1.800000e+00	1.800000e+00	
495	4.882800e-10	1.014742e-07	1.800000e+00	1.800000e+00	
496	4.892800e-10	1.014742e-07	1.800000e+00	1.800000e+00	
497	4.902800e-10	1.014742e-07	1.800000e+00	1.800000e+00	
498	4.912800e-10	1.014742e-07	1.800000e+00	1.800000e+00	
499	4.922800e-10	1.014742e-07	1.800000e+00	1.800000e+00	
500	4.932800e-10	1.014742e-07	1.800000e+00	1.800000e+00	
501	4.942800e-10	1.014742e-07	1.800000e+00	1.800000e+00	
502	4.952800e-10	1.014742e-07	1.800000e+00	1.800000e+00	
503	4.962800e-10	1.014742e-07	1.800000e+00	1.800000e+00	
504	4.972800e-10	1.014742e-07	1.800000e+00	1.800000e+00	
505	4.982800e-10	1.014742e-07	1.800000e+00	1.800000e+00	
506	4.992800e-10	1.014742e-07	1.800000e+00	1.800000e+00	
507	5.002800e-10	1.014742e-07	1.800000e+00	1.800000e+00	
508	5.012800e-10	1.014742e-07	1.800000e+00	1.800000e+00	
509	5.022800e-10	1.014742e-07	1.800000e+00	1.800000e+00	
510	5.032800e-10	1.014742e-07	1.800000e+00	1.800000e+00	
511	5.042800e-10	1.014742e-07	1.800000e+00	1.800000e+00	
512	5.052800e-10	1.014742e-07	1.800000e+00	1.800000e+00	
513	5.062800e-10	1.014742e-07	1.800000e+00	1.800000e+00	
514	5.072800e-10	1.014742e-07	1.800000e+00	1.800000e+00	
515	5.082800e-10	1.014742e-07	1.800000e+00	1.800000e+00	
516	5.092800e-10	1.014742e-07	1.800000e+00	1.800000e+00	
517	5.102800e-10	1.014742e-07	1.800000e+00	1.800000e+00	
518	5.112800e-10	1.014742e-07	1.800000e+00	1.800000e+00	

Index   time            v(q)            v(qb)           v(bl)           
--------------------------------------------------------------------------------
519	5.122800e-10	1.014742e-07	1.800000e+00	1.800000e+00	
520	5.132800e-10	1.014742e-07	1.800000e+00	1.800000e+00	
521	5.142800e-10	1.014742e-07	1.800000e+00	1.800000e+00	
522	5.152800e-10	1.014742e-07	1.800000e+00	1.800000e+00	
523	5.162800e-10	1.014742e-07	1.800000e+00	1.800000e+00	
524	5.172800e-10	1.014742e-07	1.800000e+00	1.800000e+00	
525	5.182800e-10	1.014742e-07	1.800000e+00	1.800000e+00	
526	5.192800e-10	1.014742e-07	1.800000e+00	1.800000e+00	
527	5.202800e-10	1.014742e-07	1.800000e+00	1.800000e+00	
528	5.212800e-10	1.014742e-07	1.800000e+00	1.800000e+00	
529	5.222800e-10	1.014742e-07	1.800000e+00	1.800000e+00	
530	5.232800e-10	1.014742e-07	1.800000e+00	1.800000e+00	
531	5.242800e-10	1.014742e-07	1.800000e+00	1.800000e+00	
532	5.252800e-10	1.014742e-07	1.800000e+00	1.800000e+00	
533	5.262800e-10	1.014742e-07	1.800000e+00	1.800000e+00	
534	5.272800e-10	1.014742e-07	1.800000e+00	1.800000e+00	
535	5.282800e-10	1.014742e-07	1.800000e+00	1.800000e+00	
536	5.292800e-10	1.014742e-07	1.800000e+00	1.800000e+00	
537	5.302800e-10	1.014742e-07	1.800000e+00	1.800000e+00	
538	5.312800e-10	1.014742e-07	1.800000e+00	1.800000e+00	
539	5.322800e-10	1.014742e-07	1.800000e+00	1.800000e+00	
540	5.332800e-10	1.014742e-07	1.800000e+00	1.800000e+00	
541	5.342800e-10	1.014742e-07	1.800000e+00	1.800000e+00	
542	5.352800e-10	1.014742e-07	1.800000e+00	1.800000e+00	
543	5.362800e-10	1.014742e-07	1.800000e+00	1.800000e+00	
544	5.372800e-10	1.014742e-07	1.800000e+00	1.800000e+00	
545	5.382800e-10	1.014742e-07	1.800000e+00	1.800000e+00	
546	5.392800e-10	1.014742e-07	1.800000e+00	1.800000e+00	
547	5.402800e-10	1.014742e-07	1.800000e+00	1.800000e+00	
548	5.412800e-10	1.014742e-07	1.800000e+00	1.800000e+00	
549	5.422800e-10	1.014742e-07	1.800000e+00	1.800000e+00	
550	5.432800e-10	1.014742e-07	1.800000e+00	1.800000e+00	
551	5.442800e-10	1.014742e-07	1.800000e+00	1.800000e+00	
552	5.452800e-10	1.014742e-07	1.800000e+00	1.800000e+00	
553	5.462800e-10	1.014742e-07	1.800000e+00	1.800000e+00	
554	5.472800e-10	1.014742e-07	1.800000e+00	1.800000e+00	
555	5.482800e-10	1.014742e-07	1.800000e+00	1.800000e+00	
556	5.492800e-10	1.014742e-07	1.800000e+00	1.800000e+00	
557	5.502800e-10	1.014742e-07	1.800000e+00	1.800000e+00	
558	5.512800e-10	1.014742e-07	1.800000e+00	1.800000e+00	
559	5.522800e-10	1.014742e-07	1.800000e+00	1.800000e+00	
560	5.532800e-10	1.014742e-07	1.800000e+00	1.800000e+00	
561	5.542800e-10	1.014742e-07	1.800000e+00	1.800000e+00	
562	5.552800e-10	1.014742e-07	1.800000e+00	1.800000e+00	
563	5.562800e-10	1.014742e-07	1.800000e+00	1.800000e+00	
564	5.572800e-10	1.014742e-07	1.800000e+00	1.800000e+00	
565	5.582800e-10	1.014742e-07	1.800000e+00	1.800000e+00	
566	5.592800e-10	1.014742e-07	1.800000e+00	1.800000e+00	
567	5.602800e-10	1.014742e-07	1.800000e+00	1.800000e+00	
568	5.612800e-10	1.014742e-07	1.800000e+00	1.800000e+00	
569	5.622800e-10	1.014742e-07	1.800000e+00	1.800000e+00	
570	5.632800e-10	1.014742e-07	1.800000e+00	1.800000e+00	
571	5.642800e-10	1.014742e-07	1.800000e+00	1.800000e+00	
572	5.652800e-10	1.014742e-07	1.800000e+00	1.800000e+00	
573	5.662800e-10	1.014742e-07	1.800000e+00	1.800000e+00	
574	5.672800e-10	1.014742e-07	1.800000e+00	1.800000e+00	
575	5.682800e-10	1.014742e-07	1.800000e+00	1.800000e+00	
576	5.692800e-10	1.014742e-07	1.800000e+00	1.800000e+00	

Index   time            v(q)            v(qb)           v(bl)           
--------------------------------------------------------------------------------
577	5.702800e-10	1.014742e-07	1.800000e+00	1.800000e+00	
578	5.712800e-10	1.014742e-07	1.800000e+00	1.800000e+00	
579	5.722800e-10	1.014742e-07	1.800000e+00	1.800000e+00	
580	5.732800e-10	1.014742e-07	1.800000e+00	1.800000e+00	
581	5.742800e-10	1.014742e-07	1.800000e+00	1.800000e+00	
582	5.752800e-10	1.014742e-07	1.800000e+00	1.800000e+00	
583	5.762800e-10	1.014742e-07	1.800000e+00	1.800000e+00	
584	5.772800e-10	1.014742e-07	1.800000e+00	1.800000e+00	
585	5.782800e-10	1.014742e-07	1.800000e+00	1.800000e+00	
586	5.792800e-10	1.014742e-07	1.800000e+00	1.800000e+00	
587	5.802800e-10	1.014742e-07	1.800000e+00	1.800000e+00	
588	5.812800e-10	1.014742e-07	1.800000e+00	1.800000e+00	
589	5.822800e-10	1.014742e-07	1.800000e+00	1.800000e+00	
590	5.832800e-10	1.014742e-07	1.800000e+00	1.800000e+00	
591	5.842800e-10	1.014742e-07	1.800000e+00	1.800000e+00	
592	5.852800e-10	1.014742e-07	1.800000e+00	1.800000e+00	
593	5.862800e-10	1.014742e-07	1.800000e+00	1.800000e+00	
594	5.872800e-10	1.014742e-07	1.800000e+00	1.800000e+00	
595	5.882800e-10	1.014742e-07	1.800000e+00	1.800000e+00	
596	5.892800e-10	1.014742e-07	1.800000e+00	1.800000e+00	
597	5.902800e-10	1.014742e-07	1.800000e+00	1.800000e+00	
598	5.912800e-10	1.014742e-07	1.800000e+00	1.800000e+00	
599	5.922800e-10	1.014742e-07	1.800000e+00	1.800000e+00	
600	5.932800e-10	1.014742e-07	1.800000e+00	1.800000e+00	
601	5.942800e-10	1.014742e-07	1.800000e+00	1.800000e+00	
602	5.952800e-10	1.014742e-07	1.800000e+00	1.800000e+00	
603	5.962800e-10	1.014742e-07	1.800000e+00	1.800000e+00	
604	5.972800e-10	1.014742e-07	1.800000e+00	1.800000e+00	
605	5.982800e-10	1.014742e-07	1.800000e+00	1.800000e+00	
606	5.992800e-10	1.014742e-07	1.800000e+00	1.800000e+00	
607	6.002800e-10	1.014742e-07	1.800000e+00	1.800000e+00	
608	6.012800e-10	1.014742e-07	1.800000e+00	1.800000e+00	
609	6.022800e-10	1.014742e-07	1.800000e+00	1.800000e+00	
610	6.032800e-10	1.014742e-07	1.800000e+00	1.800000e+00	
611	6.042800e-10	1.014742e-07	1.800000e+00	1.800000e+00	
612	6.052800e-10	1.014742e-07	1.800000e+00	1.800000e+00	
613	6.062800e-10	1.014742e-07	1.800000e+00	1.800000e+00	
614	6.072800e-10	1.014742e-07	1.800000e+00	1.800000e+00	
615	6.082800e-10	1.014742e-07	1.800000e+00	1.800000e+00	
616	6.092800e-10	1.014742e-07	1.800000e+00	1.800000e+00	
617	6.102800e-10	1.014742e-07	1.800000e+00	1.800000e+00	
618	6.112800e-10	1.014742e-07	1.800000e+00	1.800000e+00	
619	6.122800e-10	1.014742e-07	1.800000e+00	1.800000e+00	
620	6.132800e-10	1.014742e-07	1.800000e+00	1.800000e+00	
621	6.142800e-10	1.014742e-07	1.800000e+00	1.800000e+00	
622	6.152800e-10	1.014742e-07	1.800000e+00	1.800000e+00	
623	6.162800e-10	1.014742e-07	1.800000e+00	1.800000e+00	
624	6.172800e-10	1.014742e-07	1.800000e+00	1.800000e+00	
625	6.182800e-10	1.014742e-07	1.800000e+00	1.800000e+00	
626	6.192800e-10	1.014742e-07	1.800000e+00	1.800000e+00	
627	6.202800e-10	1.014742e-07	1.800000e+00	1.800000e+00	
628	6.212800e-10	1.014742e-07	1.800000e+00	1.800000e+00	
629	6.222800e-10	1.014742e-07	1.800000e+00	1.800000e+00	
630	6.232800e-10	1.014742e-07	1.800000e+00	1.800000e+00	
631	6.242800e-10	1.014742e-07	1.800000e+00	1.800000e+00	
632	6.252800e-10	1.014742e-07	1.800000e+00	1.800000e+00	
633	6.262800e-10	1.014742e-07	1.800000e+00	1.800000e+00	
634	6.272800e-10	1.014742e-07	1.800000e+00	1.800000e+00	

Index   time            v(q)            v(qb)           v(bl)           
--------------------------------------------------------------------------------
635	6.282800e-10	1.014742e-07	1.800000e+00	1.800000e+00	
636	6.292800e-10	1.014742e-07	1.800000e+00	1.800000e+00	
637	6.302800e-10	1.014742e-07	1.800000e+00	1.800000e+00	
638	6.312800e-10	1.014742e-07	1.800000e+00	1.800000e+00	
639	6.322800e-10	1.014742e-07	1.800000e+00	1.800000e+00	
640	6.332800e-10	1.014742e-07	1.800000e+00	1.800000e+00	
641	6.342800e-10	1.014742e-07	1.800000e+00	1.800000e+00	
642	6.352800e-10	1.014742e-07	1.800000e+00	1.800000e+00	
643	6.362800e-10	1.014742e-07	1.800000e+00	1.800000e+00	
644	6.372800e-10	1.014742e-07	1.800000e+00	1.800000e+00	
645	6.382800e-10	1.014742e-07	1.800000e+00	1.800000e+00	
646	6.392800e-10	1.014742e-07	1.800000e+00	1.800000e+00	
647	6.402800e-10	1.014742e-07	1.800000e+00	1.800000e+00	
648	6.412800e-10	1.014742e-07	1.800000e+00	1.800000e+00	
649	6.422800e-10	1.014742e-07	1.800000e+00	1.800000e+00	
650	6.432800e-10	1.014742e-07	1.800000e+00	1.800000e+00	
651	6.442800e-10	1.014742e-07	1.800000e+00	1.800000e+00	
652	6.452800e-10	1.014742e-07	1.800000e+00	1.800000e+00	
653	6.462800e-10	1.014742e-07	1.800000e+00	1.800000e+00	
654	6.472800e-10	1.014742e-07	1.800000e+00	1.800000e+00	
655	6.482800e-10	1.014742e-07	1.800000e+00	1.800000e+00	
656	6.492800e-10	1.014742e-07	1.800000e+00	1.800000e+00	
657	6.502800e-10	1.014742e-07	1.800000e+00	1.800000e+00	
658	6.512800e-10	1.014742e-07	1.800000e+00	1.800000e+00	
659	6.522800e-10	1.014742e-07	1.800000e+00	1.800000e+00	
660	6.532800e-10	1.014742e-07	1.800000e+00	1.800000e+00	
661	6.542800e-10	1.014742e-07	1.800000e+00	1.800000e+00	
662	6.552800e-10	1.014742e-07	1.800000e+00	1.800000e+00	
663	6.562800e-10	1.014742e-07	1.800000e+00	1.800000e+00	
664	6.572800e-10	1.014742e-07	1.800000e+00	1.800000e+00	
665	6.582800e-10	1.014742e-07	1.800000e+00	1.800000e+00	
666	6.592800e-10	1.014742e-07	1.800000e+00	1.800000e+00	
667	6.602800e-10	1.014742e-07	1.800000e+00	1.800000e+00	
668	6.612800e-10	1.014742e-07	1.800000e+00	1.800000e+00	
669	6.622800e-10	1.014742e-07	1.800000e+00	1.800000e+00	
670	6.632800e-10	1.014742e-07	1.800000e+00	1.800000e+00	
671	6.642800e-10	1.014742e-07	1.800000e+00	1.800000e+00	
672	6.652800e-10	1.014742e-07	1.800000e+00	1.800000e+00	
673	6.662800e-10	1.014742e-07	1.800000e+00	1.800000e+00	
674	6.672800e-10	1.014742e-07	1.800000e+00	1.800000e+00	
675	6.682800e-10	1.014742e-07	1.800000e+00	1.800000e+00	
676	6.692800e-10	1.014742e-07	1.800000e+00	1.800000e+00	
677	6.702800e-10	1.014742e-07	1.800000e+00	1.800000e+00	
678	6.712800e-10	1.014742e-07	1.800000e+00	1.800000e+00	
679	6.722800e-10	1.014742e-07	1.800000e+00	1.800000e+00	
680	6.732800e-10	1.014742e-07	1.800000e+00	1.800000e+00	
681	6.742800e-10	1.014742e-07	1.800000e+00	1.800000e+00	
682	6.752800e-10	1.014742e-07	1.800000e+00	1.800000e+00	
683	6.762800e-10	1.014742e-07	1.800000e+00	1.800000e+00	
684	6.772800e-10	1.014742e-07	1.800000e+00	1.800000e+00	
685	6.782800e-10	1.014742e-07	1.800000e+00	1.800000e+00	
686	6.792800e-10	1.014742e-07	1.800000e+00	1.800000e+00	
687	6.802800e-10	1.014742e-07	1.800000e+00	1.800000e+00	
688	6.812800e-10	1.014742e-07	1.800000e+00	1.800000e+00	
689	6.822800e-10	1.014742e-07	1.800000e+00	1.800000e+00	
690	6.832800e-10	1.014742e-07	1.800000e+00	1.800000e+00	
691	6.842800e-10	1.014742e-07	1.800000e+00	1.800000e+00	
692	6.852800e-10	1.014742e-07	1.800000e+00	1.800000e+00	

Index   time            v(q)            v(qb)           v(bl)           
--------------------------------------------------------------------------------
693	6.862800e-10	1.014742e-07	1.800000e+00	1.800000e+00	
694	6.872800e-10	1.014742e-07	1.800000e+00	1.800000e+00	
695	6.882800e-10	1.014742e-07	1.800000e+00	1.800000e+00	
696	6.892800e-10	1.014742e-07	1.800000e+00	1.800000e+00	
697	6.902800e-10	1.014742e-07	1.800000e+00	1.800000e+00	
698	6.912800e-10	1.014742e-07	1.800000e+00	1.800000e+00	
699	6.922800e-10	1.014742e-07	1.800000e+00	1.800000e+00	
700	6.932800e-10	1.014742e-07	1.800000e+00	1.800000e+00	
701	6.942800e-10	1.014742e-07	1.800000e+00	1.800000e+00	
702	6.952800e-10	1.014742e-07	1.800000e+00	1.800000e+00	
703	6.962800e-10	1.014742e-07	1.800000e+00	1.800000e+00	
704	6.972800e-10	1.014742e-07	1.800000e+00	1.800000e+00	
705	6.982800e-10	1.014742e-07	1.800000e+00	1.800000e+00	
706	6.992800e-10	1.014742e-07	1.800000e+00	1.800000e+00	
707	7.002800e-10	1.014742e-07	1.800000e+00	1.800000e+00	
708	7.012800e-10	1.014742e-07	1.800000e+00	1.800000e+00	
709	7.022800e-10	1.014742e-07	1.800000e+00	1.800000e+00	
710	7.032800e-10	1.014742e-07	1.800000e+00	1.800000e+00	
711	7.042800e-10	1.014742e-07	1.800000e+00	1.800000e+00	
712	7.052800e-10	1.014742e-07	1.800000e+00	1.800000e+00	
713	7.062800e-10	1.014742e-07	1.800000e+00	1.800000e+00	
714	7.072800e-10	1.014742e-07	1.800000e+00	1.800000e+00	
715	7.082800e-10	1.014742e-07	1.800000e+00	1.800000e+00	
716	7.092800e-10	1.014742e-07	1.800000e+00	1.800000e+00	
717	7.102800e-10	1.014742e-07	1.800000e+00	1.800000e+00	
718	7.112800e-10	1.014742e-07	1.800000e+00	1.800000e+00	
719	7.122800e-10	1.014742e-07	1.800000e+00	1.800000e+00	
720	7.132800e-10	1.014742e-07	1.800000e+00	1.800000e+00	
721	7.142800e-10	1.014742e-07	1.800000e+00	1.800000e+00	
722	7.152800e-10	1.014742e-07	1.800000e+00	1.800000e+00	
723	7.162800e-10	1.014742e-07	1.800000e+00	1.800000e+00	
724	7.172800e-10	1.014742e-07	1.800000e+00	1.800000e+00	
725	7.182800e-10	1.014742e-07	1.800000e+00	1.800000e+00	
726	7.192800e-10	1.014742e-07	1.800000e+00	1.800000e+00	
727	7.202800e-10	1.014742e-07	1.800000e+00	1.800000e+00	
728	7.212800e-10	1.014742e-07	1.800000e+00	1.800000e+00	
729	7.222800e-10	1.014742e-07	1.800000e+00	1.800000e+00	
730	7.232800e-10	1.014742e-07	1.800000e+00	1.800000e+00	
731	7.242800e-10	1.014742e-07	1.800000e+00	1.800000e+00	
732	7.252800e-10	1.014742e-07	1.800000e+00	1.800000e+00	
733	7.262800e-10	1.014742e-07	1.800000e+00	1.800000e+00	
734	7.272800e-10	1.014742e-07	1.800000e+00	1.800000e+00	
735	7.282800e-10	1.014742e-07	1.800000e+00	1.800000e+00	
736	7.292800e-10	1.014742e-07	1.800000e+00	1.800000e+00	
737	7.302800e-10	1.014742e-07	1.800000e+00	1.800000e+00	
738	7.312800e-10	1.014742e-07	1.800000e+00	1.800000e+00	
739	7.322800e-10	1.014742e-07	1.800000e+00	1.800000e+00	
740	7.332800e-10	1.014742e-07	1.800000e+00	1.800000e+00	
741	7.342800e-10	1.014742e-07	1.800000e+00	1.800000e+00	
742	7.352800e-10	1.014742e-07	1.800000e+00	1.800000e+00	
743	7.362800e-10	1.014742e-07	1.800000e+00	1.800000e+00	
744	7.372800e-10	1.014742e-07	1.800000e+00	1.800000e+00	
745	7.382800e-10	1.014742e-07	1.800000e+00	1.800000e+00	
746	7.392800e-10	1.014742e-07	1.800000e+00	1.800000e+00	
747	7.402800e-10	1.014742e-07	1.800000e+00	1.800000e+00	
748	7.412800e-10	1.014742e-07	1.800000e+00	1.800000e+00	
749	7.422800e-10	1.014742e-07	1.800000e+00	1.800000e+00	
750	7.432800e-10	1.014742e-07	1.800000e+00	1.800000e+00	

Index   time            v(q)            v(qb)           v(bl)           
--------------------------------------------------------------------------------
751	7.442800e-10	1.014742e-07	1.800000e+00	1.800000e+00	
752	7.452800e-10	1.014742e-07	1.800000e+00	1.800000e+00	
753	7.462800e-10	1.014742e-07	1.800000e+00	1.800000e+00	
754	7.472800e-10	1.014742e-07	1.800000e+00	1.800000e+00	
755	7.482800e-10	1.014742e-07	1.800000e+00	1.800000e+00	
756	7.492800e-10	1.014742e-07	1.800000e+00	1.800000e+00	
757	7.502800e-10	1.014742e-07	1.800000e+00	1.800000e+00	
758	7.512800e-10	1.014742e-07	1.800000e+00	1.800000e+00	
759	7.522800e-10	1.014742e-07	1.800000e+00	1.800000e+00	
760	7.532800e-10	1.014742e-07	1.800000e+00	1.800000e+00	
761	7.542800e-10	1.014742e-07	1.800000e+00	1.800000e+00	
762	7.552800e-10	1.014742e-07	1.800000e+00	1.800000e+00	
763	7.562800e-10	1.014742e-07	1.800000e+00	1.800000e+00	
764	7.572800e-10	1.014742e-07	1.800000e+00	1.800000e+00	
765	7.582800e-10	1.014742e-07	1.800000e+00	1.800000e+00	
766	7.592800e-10	1.014742e-07	1.800000e+00	1.800000e+00	
767	7.602800e-10	1.014742e-07	1.800000e+00	1.800000e+00	
768	7.612800e-10	1.014742e-07	1.800000e+00	1.800000e+00	
769	7.622800e-10	1.014742e-07	1.800000e+00	1.800000e+00	
770	7.632800e-10	1.014742e-07	1.800000e+00	1.800000e+00	
771	7.642800e-10	1.014742e-07	1.800000e+00	1.800000e+00	
772	7.652800e-10	1.014742e-07	1.800000e+00	1.800000e+00	
773	7.662800e-10	1.014742e-07	1.800000e+00	1.800000e+00	
774	7.672800e-10	1.014742e-07	1.800000e+00	1.800000e+00	
775	7.682800e-10	1.014742e-07	1.800000e+00	1.800000e+00	
776	7.692800e-10	1.014742e-07	1.800000e+00	1.800000e+00	
777	7.702800e-10	1.014742e-07	1.800000e+00	1.800000e+00	
778	7.712800e-10	1.014742e-07	1.800000e+00	1.800000e+00	
779	7.722800e-10	1.014742e-07	1.800000e+00	1.800000e+00	
780	7.732800e-10	1.014742e-07	1.800000e+00	1.800000e+00	
781	7.742800e-10	1.014742e-07	1.800000e+00	1.800000e+00	
782	7.752800e-10	1.014742e-07	1.800000e+00	1.800000e+00	
783	7.762800e-10	1.014742e-07	1.800000e+00	1.800000e+00	
784	7.772800e-10	1.014742e-07	1.800000e+00	1.800000e+00	
785	7.782800e-10	1.014742e-07	1.800000e+00	1.800000e+00	
786	7.792800e-10	1.014742e-07	1.800000e+00	1.800000e+00	
787	7.802800e-10	1.014742e-07	1.800000e+00	1.800000e+00	
788	7.812800e-10	1.014742e-07	1.800000e+00	1.800000e+00	
789	7.822800e-10	1.014742e-07	1.800000e+00	1.800000e+00	
790	7.832800e-10	1.014742e-07	1.800000e+00	1.800000e+00	
791	7.842800e-10	1.014742e-07	1.800000e+00	1.800000e+00	
792	7.852800e-10	1.014742e-07	1.800000e+00	1.800000e+00	
793	7.862800e-10	1.014742e-07	1.800000e+00	1.800000e+00	
794	7.872800e-10	1.014742e-07	1.800000e+00	1.800000e+00	
795	7.882800e-10	1.014742e-07	1.800000e+00	1.800000e+00	
796	7.892800e-10	1.014742e-07	1.800000e+00	1.800000e+00	
797	7.902800e-10	1.014742e-07	1.800000e+00	1.800000e+00	
798	7.912800e-10	1.014742e-07	1.800000e+00	1.800000e+00	
799	7.922800e-10	1.014742e-07	1.800000e+00	1.800000e+00	
800	7.932800e-10	1.014742e-07	1.800000e+00	1.800000e+00	
801	7.942800e-10	1.014742e-07	1.800000e+00	1.800000e+00	
802	7.952800e-10	1.014742e-07	1.800000e+00	1.800000e+00	
803	7.962800e-10	1.014742e-07	1.800000e+00	1.800000e+00	
804	7.972800e-10	1.014742e-07	1.800000e+00	1.800000e+00	
805	7.982800e-10	1.014742e-07	1.800000e+00	1.800000e+00	
806	7.992800e-10	1.014742e-07	1.800000e+00	1.800000e+00	
807	8.002800e-10	1.014742e-07	1.800000e+00	1.800000e+00	
808	8.012800e-10	1.014742e-07	1.800000e+00	1.800000e+00	

Index   time            v(q)            v(qb)           v(bl)           
--------------------------------------------------------------------------------
809	8.022800e-10	1.014742e-07	1.800000e+00	1.800000e+00	
810	8.032800e-10	1.014742e-07	1.800000e+00	1.800000e+00	
811	8.042800e-10	1.014742e-07	1.800000e+00	1.800000e+00	
812	8.052800e-10	1.014742e-07	1.800000e+00	1.800000e+00	
813	8.062800e-10	1.014742e-07	1.800000e+00	1.800000e+00	
814	8.072800e-10	1.014742e-07	1.800000e+00	1.800000e+00	
815	8.082800e-10	1.014742e-07	1.800000e+00	1.800000e+00	
816	8.092800e-10	1.014742e-07	1.800000e+00	1.800000e+00	
817	8.102800e-10	1.014742e-07	1.800000e+00	1.800000e+00	
818	8.112800e-10	1.014742e-07	1.800000e+00	1.800000e+00	
819	8.122800e-10	1.014742e-07	1.800000e+00	1.800000e+00	
820	8.132800e-10	1.014742e-07	1.800000e+00	1.800000e+00	
821	8.142800e-10	1.014742e-07	1.800000e+00	1.800000e+00	
822	8.152800e-10	1.014742e-07	1.800000e+00	1.800000e+00	
823	8.162800e-10	1.014742e-07	1.800000e+00	1.800000e+00	
824	8.172800e-10	1.014742e-07	1.800000e+00	1.800000e+00	
825	8.182800e-10	1.014742e-07	1.800000e+00	1.800000e+00	
826	8.192800e-10	1.014742e-07	1.800000e+00	1.800000e+00	
827	8.202800e-10	1.014742e-07	1.800000e+00	1.800000e+00	
828	8.212800e-10	1.014742e-07	1.800000e+00	1.800000e+00	
829	8.222800e-10	1.014742e-07	1.800000e+00	1.800000e+00	
830	8.232800e-10	1.014742e-07	1.800000e+00	1.800000e+00	
831	8.242800e-10	1.014742e-07	1.800000e+00	1.800000e+00	
832	8.252800e-10	1.014742e-07	1.800000e+00	1.800000e+00	
833	8.262800e-10	1.014742e-07	1.800000e+00	1.800000e+00	
834	8.272800e-10	1.014742e-07	1.800000e+00	1.800000e+00	
835	8.282800e-10	1.014742e-07	1.800000e+00	1.800000e+00	
836	8.292800e-10	1.014742e-07	1.800000e+00	1.800000e+00	
837	8.302800e-10	1.014742e-07	1.800000e+00	1.800000e+00	
838	8.312800e-10	1.014742e-07	1.800000e+00	1.800000e+00	
839	8.322800e-10	1.014742e-07	1.800000e+00	1.800000e+00	
840	8.332800e-10	1.014742e-07	1.800000e+00	1.800000e+00	
841	8.342800e-10	1.014742e-07	1.800000e+00	1.800000e+00	
842	8.352800e-10	1.014742e-07	1.800000e+00	1.800000e+00	
843	8.362800e-10	1.014742e-07	1.800000e+00	1.800000e+00	
844	8.372800e-10	1.014742e-07	1.800000e+00	1.800000e+00	
845	8.382800e-10	1.014742e-07	1.800000e+00	1.800000e+00	
846	8.392800e-10	1.014742e-07	1.800000e+00	1.800000e+00	
847	8.402800e-10	1.014742e-07	1.800000e+00	1.800000e+00	
848	8.412800e-10	1.014742e-07	1.800000e+00	1.800000e+00	
849	8.422800e-10	1.014742e-07	1.800000e+00	1.800000e+00	
850	8.432800e-10	1.014742e-07	1.800000e+00	1.800000e+00	
851	8.442800e-10	1.014742e-07	1.800000e+00	1.800000e+00	
852	8.452800e-10	1.014742e-07	1.800000e+00	1.800000e+00	
853	8.462800e-10	1.014742e-07	1.800000e+00	1.800000e+00	
854	8.472800e-10	1.014742e-07	1.800000e+00	1.800000e+00	
855	8.482800e-10	1.014742e-07	1.800000e+00	1.800000e+00	
856	8.492800e-10	1.014742e-07	1.800000e+00	1.800000e+00	
857	8.502800e-10	1.014742e-07	1.800000e+00	1.800000e+00	
858	8.512800e-10	1.014742e-07	1.800000e+00	1.800000e+00	
859	8.522800e-10	1.014742e-07	1.800000e+00	1.800000e+00	
860	8.532800e-10	1.014742e-07	1.800000e+00	1.800000e+00	
861	8.542800e-10	1.014742e-07	1.800000e+00	1.800000e+00	
862	8.552800e-10	1.014742e-07	1.800000e+00	1.800000e+00	
863	8.562800e-10	1.014742e-07	1.800000e+00	1.800000e+00	
864	8.572800e-10	1.014742e-07	1.800000e+00	1.800000e+00	
865	8.582800e-10	1.014742e-07	1.800000e+00	1.800000e+00	
866	8.592800e-10	1.014742e-07	1.800000e+00	1.800000e+00	

Index   time            v(q)            v(qb)           v(bl)           
--------------------------------------------------------------------------------
867	8.602800e-10	1.014742e-07	1.800000e+00	1.800000e+00	
868	8.612800e-10	1.014742e-07	1.800000e+00	1.800000e+00	
869	8.622800e-10	1.014742e-07	1.800000e+00	1.800000e+00	
870	8.632800e-10	1.014742e-07	1.800000e+00	1.800000e+00	
871	8.642800e-10	1.014742e-07	1.800000e+00	1.800000e+00	
872	8.652800e-10	1.014742e-07	1.800000e+00	1.800000e+00	
873	8.662800e-10	1.014742e-07	1.800000e+00	1.800000e+00	
874	8.672800e-10	1.014742e-07	1.800000e+00	1.800000e+00	
875	8.682800e-10	1.014742e-07	1.800000e+00	1.800000e+00	
876	8.692800e-10	1.014742e-07	1.800000e+00	1.800000e+00	
877	8.702800e-10	1.014742e-07	1.800000e+00	1.800000e+00	
878	8.712800e-10	1.014742e-07	1.800000e+00	1.800000e+00	
879	8.722800e-10	1.014742e-07	1.800000e+00	1.800000e+00	
880	8.732800e-10	1.014742e-07	1.800000e+00	1.800000e+00	
881	8.742800e-10	1.014742e-07	1.800000e+00	1.800000e+00	
882	8.752800e-10	1.014742e-07	1.800000e+00	1.800000e+00	
883	8.762800e-10	1.014742e-07	1.800000e+00	1.800000e+00	
884	8.772800e-10	1.014742e-07	1.800000e+00	1.800000e+00	
885	8.782800e-10	1.014742e-07	1.800000e+00	1.800000e+00	
886	8.792800e-10	1.014742e-07	1.800000e+00	1.800000e+00	
887	8.802800e-10	1.014742e-07	1.800000e+00	1.800000e+00	
888	8.812800e-10	1.014742e-07	1.800000e+00	1.800000e+00	
889	8.822800e-10	1.014742e-07	1.800000e+00	1.800000e+00	
890	8.832800e-10	1.014742e-07	1.800000e+00	1.800000e+00	
891	8.842800e-10	1.014742e-07	1.800000e+00	1.800000e+00	
892	8.852800e-10	1.014742e-07	1.800000e+00	1.800000e+00	
893	8.862800e-10	1.014742e-07	1.800000e+00	1.800000e+00	
894	8.872800e-10	1.014742e-07	1.800000e+00	1.800000e+00	
895	8.882800e-10	1.014742e-07	1.800000e+00	1.800000e+00	
896	8.892800e-10	1.014742e-07	1.800000e+00	1.800000e+00	
897	8.902800e-10	1.014742e-07	1.800000e+00	1.800000e+00	
898	8.912800e-10	1.014742e-07	1.800000e+00	1.800000e+00	
899	8.922800e-10	1.014742e-07	1.800000e+00	1.800000e+00	
900	8.932800e-10	1.014742e-07	1.800000e+00	1.800000e+00	
901	8.942800e-10	1.014742e-07	1.800000e+00	1.800000e+00	
902	8.952800e-10	1.014742e-07	1.800000e+00	1.800000e+00	
903	8.962800e-10	1.014742e-07	1.800000e+00	1.800000e+00	
904	8.972800e-10	1.014742e-07	1.800000e+00	1.800000e+00	
905	8.982800e-10	1.014742e-07	1.800000e+00	1.800000e+00	
906	8.992800e-10	1.014742e-07	1.800000e+00	1.800000e+00	
907	9.002800e-10	1.014742e-07	1.800000e+00	1.800000e+00	
908	9.012800e-10	1.014742e-07	1.800000e+00	1.800000e+00	
909	9.022800e-10	1.014742e-07	1.800000e+00	1.800000e+00	
910	9.032800e-10	1.014742e-07	1.800000e+00	1.800000e+00	
911	9.042800e-10	1.014742e-07	1.800000e+00	1.800000e+00	
912	9.052800e-10	1.014742e-07	1.800000e+00	1.800000e+00	
913	9.062800e-10	1.014742e-07	1.800000e+00	1.800000e+00	
914	9.072800e-10	1.014742e-07	1.800000e+00	1.800000e+00	
915	9.082800e-10	1.014742e-07	1.800000e+00	1.800000e+00	
916	9.092800e-10	1.014742e-07	1.800000e+00	1.800000e+00	
917	9.102800e-10	1.014742e-07	1.800000e+00	1.800000e+00	
918	9.112800e-10	1.014742e-07	1.800000e+00	1.800000e+00	
919	9.122800e-10	1.014742e-07	1.800000e+00	1.800000e+00	
920	9.132800e-10	1.014742e-07	1.800000e+00	1.800000e+00	
921	9.142800e-10	1.014742e-07	1.800000e+00	1.800000e+00	
922	9.152800e-10	1.014742e-07	1.800000e+00	1.800000e+00	
923	9.162800e-10	1.014742e-07	1.800000e+00	1.800000e+00	
924	9.172800e-10	1.014742e-07	1.800000e+00	1.800000e+00	

Index   time            v(q)            v(qb)           v(bl)           
--------------------------------------------------------------------------------
925	9.182800e-10	1.014742e-07	1.800000e+00	1.800000e+00	
926	9.192800e-10	1.014742e-07	1.800000e+00	1.800000e+00	
927	9.202800e-10	1.014742e-07	1.800000e+00	1.800000e+00	
928	9.212800e-10	1.014742e-07	1.800000e+00	1.800000e+00	
929	9.222800e-10	1.014742e-07	1.800000e+00	1.800000e+00	
930	9.232800e-10	1.014742e-07	1.800000e+00	1.800000e+00	
931	9.242800e-10	1.014742e-07	1.800000e+00	1.800000e+00	
932	9.252800e-10	1.014742e-07	1.800000e+00	1.800000e+00	
933	9.262800e-10	1.014742e-07	1.800000e+00	1.800000e+00	
934	9.272800e-10	1.014742e-07	1.800000e+00	1.800000e+00	
935	9.282800e-10	1.014742e-07	1.800000e+00	1.800000e+00	
936	9.292800e-10	1.014742e-07	1.800000e+00	1.800000e+00	
937	9.302800e-10	1.014742e-07	1.800000e+00	1.800000e+00	
938	9.312800e-10	1.014742e-07	1.800000e+00	1.800000e+00	
939	9.322800e-10	1.014742e-07	1.800000e+00	1.800000e+00	
940	9.332800e-10	1.014742e-07	1.800000e+00	1.800000e+00	
941	9.342800e-10	1.014742e-07	1.800000e+00	1.800000e+00	
942	9.352800e-10	1.014742e-07	1.800000e+00	1.800000e+00	
943	9.362800e-10	1.014742e-07	1.800000e+00	1.800000e+00	
944	9.372800e-10	1.014742e-07	1.800000e+00	1.800000e+00	
945	9.382800e-10	1.014742e-07	1.800000e+00	1.800000e+00	
946	9.392800e-10	1.014742e-07	1.800000e+00	1.800000e+00	
947	9.402800e-10	1.014742e-07	1.800000e+00	1.800000e+00	
948	9.412800e-10	1.014742e-07	1.800000e+00	1.800000e+00	
949	9.422800e-10	1.014742e-07	1.800000e+00	1.800000e+00	
950	9.432800e-10	1.014742e-07	1.800000e+00	1.800000e+00	
951	9.442800e-10	1.014742e-07	1.800000e+00	1.800000e+00	
952	9.452800e-10	1.014742e-07	1.800000e+00	1.800000e+00	
953	9.462800e-10	1.014742e-07	1.800000e+00	1.800000e+00	
954	9.472800e-10	1.014742e-07	1.800000e+00	1.800000e+00	
955	9.482800e-10	1.014742e-07	1.800000e+00	1.800000e+00	
956	9.492800e-10	1.014742e-07	1.800000e+00	1.800000e+00	
957	9.502800e-10	1.014742e-07	1.800000e+00	1.800000e+00	
958	9.512800e-10	1.014742e-07	1.800000e+00	1.800000e+00	
959	9.522800e-10	1.014742e-07	1.800000e+00	1.800000e+00	
960	9.532800e-10	1.014742e-07	1.800000e+00	1.800000e+00	
961	9.542800e-10	1.014742e-07	1.800000e+00	1.800000e+00	
962	9.552800e-10	1.014742e-07	1.800000e+00	1.800000e+00	
963	9.562800e-10	1.014742e-07	1.800000e+00	1.800000e+00	
964	9.572800e-10	1.014742e-07	1.800000e+00	1.800000e+00	
965	9.582800e-10	1.014742e-07	1.800000e+00	1.800000e+00	
966	9.592800e-10	1.014742e-07	1.800000e+00	1.800000e+00	
967	9.602800e-10	1.014742e-07	1.800000e+00	1.800000e+00	
968	9.612800e-10	1.014742e-07	1.800000e+00	1.800000e+00	
969	9.622800e-10	1.014742e-07	1.800000e+00	1.800000e+00	
970	9.632800e-10	1.014742e-07	1.800000e+00	1.800000e+00	
971	9.642800e-10	1.014742e-07	1.800000e+00	1.800000e+00	
972	9.652800e-10	1.014742e-07	1.800000e+00	1.800000e+00	
973	9.662800e-10	1.014742e-07	1.800000e+00	1.800000e+00	
974	9.672800e-10	1.014742e-07	1.800000e+00	1.800000e+00	
975	9.682800e-10	1.014742e-07	1.800000e+00	1.800000e+00	
976	9.692800e-10	1.014742e-07	1.800000e+00	1.800000e+00	
977	9.702800e-10	1.014742e-07	1.800000e+00	1.800000e+00	
978	9.712800e-10	1.014742e-07	1.800000e+00	1.800000e+00	
979	9.722800e-10	1.014742e-07	1.800000e+00	1.800000e+00	
980	9.732800e-10	1.014742e-07	1.800000e+00	1.800000e+00	
981	9.742800e-10	1.014742e-07	1.800000e+00	1.800000e+00	
982	9.752800e-10	1.014742e-07	1.800000e+00	1.800000e+00	

Index   time            v(q)            v(qb)           v(bl)           
--------------------------------------------------------------------------------
983	9.762800e-10	1.014742e-07	1.800000e+00	1.800000e+00	
984	9.772800e-10	1.014742e-07	1.800000e+00	1.800000e+00	
985	9.782800e-10	1.014742e-07	1.800000e+00	1.800000e+00	
986	9.792800e-10	1.014742e-07	1.800000e+00	1.800000e+00	
987	9.802800e-10	1.014742e-07	1.800000e+00	1.800000e+00	
988	9.812800e-10	1.014742e-07	1.800000e+00	1.800000e+00	
989	9.822800e-10	1.014742e-07	1.800000e+00	1.800000e+00	
990	9.832800e-10	1.014742e-07	1.800000e+00	1.800000e+00	
991	9.842800e-10	1.014742e-07	1.800000e+00	1.800000e+00	
992	9.852800e-10	1.014742e-07	1.800000e+00	1.800000e+00	
993	9.862800e-10	1.014742e-07	1.800000e+00	1.800000e+00	
994	9.872800e-10	1.014742e-07	1.800000e+00	1.800000e+00	
995	9.882800e-10	1.014742e-07	1.800000e+00	1.800000e+00	
996	9.892800e-10	1.014742e-07	1.800000e+00	1.800000e+00	
997	9.902800e-10	1.014742e-07	1.800000e+00	1.800000e+00	
998	9.912800e-10	1.014742e-07	1.800000e+00	1.800000e+00	
999	9.922800e-10	1.014742e-07	1.800000e+00	1.800000e+00	
1000	9.932800e-10	1.014742e-07	1.800000e+00	1.800000e+00	
1001	9.942800e-10	1.014742e-07	1.800000e+00	1.800000e+00	
1002	9.952800e-10	1.014742e-07	1.800000e+00	1.800000e+00	
1003	9.962800e-10	1.014742e-07	1.800000e+00	1.800000e+00	
1004	9.972800e-10	1.014742e-07	1.800000e+00	1.800000e+00	
1005	9.982800e-10	1.014742e-07	1.800000e+00	1.800000e+00	
1006	9.992800e-10	1.014742e-07	1.800000e+00	1.800000e+00	
1007	1.000280e-09	1.014742e-07	1.800000e+00	1.800000e+00	
1008	1.001280e-09	1.014742e-07	1.800000e+00	1.800000e+00	
1009	1.002280e-09	1.014742e-07	1.800000e+00	1.800000e+00	
1010	1.003280e-09	1.014742e-07	1.800000e+00	1.800000e+00	
1011	1.004280e-09	1.014742e-07	1.800000e+00	1.800000e+00	
1012	1.005280e-09	1.014742e-07	1.800000e+00	1.800000e+00	
1013	1.006280e-09	1.014742e-07	1.800000e+00	1.800000e+00	
1014	1.007280e-09	1.014742e-07	1.800000e+00	1.800000e+00	
1015	1.008280e-09	1.014742e-07	1.800000e+00	1.800000e+00	
1016	1.009280e-09	1.014742e-07	1.800000e+00	1.800000e+00	
1017	1.010280e-09	1.014742e-07	1.800000e+00	1.800000e+00	
1018	1.011280e-09	1.014742e-07	1.800000e+00	1.800000e+00	
1019	1.012280e-09	1.014742e-07	1.800000e+00	1.800000e+00	
1020	1.013280e-09	1.014742e-07	1.800000e+00	1.800000e+00	
1021	1.014280e-09	1.014742e-07	1.800000e+00	1.800000e+00	
1022	1.015280e-09	1.014742e-07	1.800000e+00	1.800000e+00	
1023	1.016280e-09	1.014742e-07	1.800000e+00	1.800000e+00	
1024	1.017280e-09	1.014742e-07	1.800000e+00	1.800000e+00	
1025	1.018280e-09	1.014742e-07	1.800000e+00	1.800000e+00	
1026	1.019280e-09	1.014742e-07	1.800000e+00	1.800000e+00	
1027	1.020280e-09	1.014742e-07	1.800000e+00	1.800000e+00	
1028	1.021280e-09	1.014742e-07	1.800000e+00	1.800000e+00	
1029	1.022280e-09	1.014742e-07	1.800000e+00	1.800000e+00	
1030	1.023280e-09	1.014742e-07	1.800000e+00	1.800000e+00	
1031	1.024280e-09	1.014742e-07	1.800000e+00	1.800000e+00	
1032	1.025280e-09	1.014742e-07	1.800000e+00	1.800000e+00	
1033	1.026280e-09	1.014742e-07	1.800000e+00	1.800000e+00	
1034	1.027280e-09	1.014742e-07	1.800000e+00	1.800000e+00	
1035	1.028280e-09	1.014742e-07	1.800000e+00	1.800000e+00	
1036	1.029280e-09	1.014742e-07	1.800000e+00	1.800000e+00	
1037	1.030280e-09	1.014742e-07	1.800000e+00	1.800000e+00	
1038	1.031280e-09	1.014742e-07	1.800000e+00	1.800000e+00	
1039	1.032280e-09	1.014742e-07	1.800000e+00	1.800000e+00	
1040	1.033280e-09	1.014742e-07	1.800000e+00	1.800000e+00	

Index   time            v(q)            v(qb)           v(bl)           
--------------------------------------------------------------------------------
1041	1.034280e-09	1.014742e-07	1.800000e+00	1.800000e+00	
1042	1.035280e-09	1.014742e-07	1.800000e+00	1.800000e+00	
1043	1.036280e-09	1.014742e-07	1.800000e+00	1.800000e+00	
1044	1.037280e-09	1.014742e-07	1.800000e+00	1.800000e+00	
1045	1.038280e-09	1.014742e-07	1.800000e+00	1.800000e+00	
1046	1.039280e-09	1.014742e-07	1.800000e+00	1.800000e+00	
1047	1.040280e-09	1.014742e-07	1.800000e+00	1.800000e+00	
1048	1.041280e-09	1.014742e-07	1.800000e+00	1.800000e+00	
1049	1.042280e-09	1.014742e-07	1.800000e+00	1.800000e+00	
1050	1.043280e-09	1.014742e-07	1.800000e+00	1.800000e+00	
1051	1.044280e-09	1.014742e-07	1.800000e+00	1.800000e+00	
1052	1.045280e-09	1.014742e-07	1.800000e+00	1.800000e+00	
1053	1.046280e-09	1.014742e-07	1.800000e+00	1.800000e+00	
1054	1.047280e-09	1.014742e-07	1.800000e+00	1.800000e+00	
1055	1.048280e-09	1.014742e-07	1.800000e+00	1.800000e+00	
1056	1.049280e-09	1.014742e-07	1.800000e+00	1.800000e+00	
1057	1.050280e-09	1.014742e-07	1.800000e+00	1.800000e+00	
1058	1.051280e-09	1.014742e-07	1.800000e+00	1.800000e+00	
1059	1.052280e-09	1.014742e-07	1.800000e+00	1.800000e+00	
1060	1.053280e-09	1.014742e-07	1.800000e+00	1.800000e+00	
1061	1.054280e-09	1.014742e-07	1.800000e+00	1.800000e+00	
1062	1.055280e-09	1.014742e-07	1.800000e+00	1.800000e+00	
1063	1.056280e-09	1.014742e-07	1.800000e+00	1.800000e+00	
1064	1.057280e-09	1.014742e-07	1.800000e+00	1.800000e+00	
1065	1.058280e-09	1.014742e-07	1.800000e+00	1.800000e+00	
1066	1.059280e-09	1.014742e-07	1.800000e+00	1.800000e+00	
1067	1.060280e-09	1.014742e-07	1.800000e+00	1.800000e+00	
1068	1.061280e-09	1.014742e-07	1.800000e+00	1.800000e+00	
1069	1.062280e-09	1.014742e-07	1.800000e+00	1.800000e+00	
1070	1.063280e-09	1.014742e-07	1.800000e+00	1.800000e+00	
1071	1.064280e-09	1.014742e-07	1.800000e+00	1.800000e+00	
1072	1.065280e-09	1.014742e-07	1.800000e+00	1.800000e+00	
1073	1.066280e-09	1.014742e-07	1.800000e+00	1.800000e+00	
1074	1.067280e-09	1.014742e-07	1.800000e+00	1.800000e+00	
1075	1.068280e-09	1.014742e-07	1.800000e+00	1.800000e+00	
1076	1.069280e-09	1.014742e-07	1.800000e+00	1.800000e+00	
1077	1.070280e-09	1.014742e-07	1.800000e+00	1.800000e+00	
1078	1.071280e-09	1.014742e-07	1.800000e+00	1.800000e+00	
1079	1.072280e-09	1.014742e-07	1.800000e+00	1.800000e+00	
1080	1.073280e-09	1.014742e-07	1.800000e+00	1.800000e+00	
1081	1.074280e-09	1.014742e-07	1.800000e+00	1.800000e+00	
1082	1.075280e-09	1.014742e-07	1.800000e+00	1.800000e+00	
1083	1.076280e-09	1.014742e-07	1.800000e+00	1.800000e+00	
1084	1.077280e-09	1.014742e-07	1.800000e+00	1.800000e+00	
1085	1.078280e-09	1.014742e-07	1.800000e+00	1.800000e+00	
1086	1.079280e-09	1.014742e-07	1.800000e+00	1.800000e+00	
1087	1.080280e-09	1.014742e-07	1.800000e+00	1.800000e+00	
1088	1.081280e-09	1.014742e-07	1.800000e+00	1.800000e+00	
1089	1.082280e-09	1.014742e-07	1.800000e+00	1.800000e+00	
1090	1.083280e-09	1.014742e-07	1.800000e+00	1.800000e+00	
1091	1.084280e-09	1.014742e-07	1.800000e+00	1.800000e+00	
1092	1.085280e-09	1.014742e-07	1.800000e+00	1.800000e+00	
1093	1.086280e-09	1.014742e-07	1.800000e+00	1.800000e+00	
1094	1.087280e-09	1.014742e-07	1.800000e+00	1.800000e+00	
1095	1.088280e-09	1.014742e-07	1.800000e+00	1.800000e+00	
1096	1.089280e-09	1.014742e-07	1.800000e+00	1.800000e+00	
1097	1.090280e-09	1.014742e-07	1.800000e+00	1.800000e+00	
1098	1.091280e-09	1.014742e-07	1.800000e+00	1.800000e+00	

Index   time            v(q)            v(qb)           v(bl)           
--------------------------------------------------------------------------------
1099	1.092280e-09	1.014742e-07	1.800000e+00	1.800000e+00	
1100	1.093280e-09	1.014742e-07	1.800000e+00	1.800000e+00	
1101	1.094280e-09	1.014742e-07	1.800000e+00	1.800000e+00	
1102	1.095280e-09	1.014742e-07	1.800000e+00	1.800000e+00	
1103	1.096280e-09	1.014742e-07	1.800000e+00	1.800000e+00	
1104	1.097280e-09	1.014742e-07	1.800000e+00	1.800000e+00	
1105	1.098280e-09	1.014742e-07	1.800000e+00	1.800000e+00	
1106	1.099280e-09	1.014742e-07	1.800000e+00	1.800000e+00	
1107	1.100280e-09	1.014742e-07	1.800000e+00	1.800000e+00	
1108	1.101280e-09	1.014742e-07	1.800000e+00	1.800000e+00	
1109	1.102280e-09	1.014742e-07	1.800000e+00	1.800000e+00	
1110	1.103280e-09	1.014742e-07	1.800000e+00	1.800000e+00	
1111	1.104280e-09	1.014742e-07	1.800000e+00	1.800000e+00	
1112	1.105280e-09	1.014742e-07	1.800000e+00	1.800000e+00	
1113	1.106280e-09	1.014742e-07	1.800000e+00	1.800000e+00	
1114	1.107280e-09	1.014742e-07	1.800000e+00	1.800000e+00	
1115	1.108280e-09	1.014742e-07	1.800000e+00	1.800000e+00	
1116	1.109280e-09	1.014742e-07	1.800000e+00	1.800000e+00	
1117	1.110280e-09	1.014742e-07	1.800000e+00	1.800000e+00	
1118	1.111280e-09	1.014742e-07	1.800000e+00	1.800000e+00	
1119	1.112280e-09	1.014742e-07	1.800000e+00	1.800000e+00	
1120	1.113280e-09	1.014742e-07	1.800000e+00	1.800000e+00	
1121	1.114280e-09	1.014742e-07	1.800000e+00	1.800000e+00	
1122	1.115280e-09	1.014742e-07	1.800000e+00	1.800000e+00	
1123	1.116280e-09	1.014742e-07	1.800000e+00	1.800000e+00	
1124	1.117280e-09	1.014742e-07	1.800000e+00	1.800000e+00	
1125	1.118280e-09	1.014742e-07	1.800000e+00	1.800000e+00	
1126	1.119280e-09	1.014742e-07	1.800000e+00	1.800000e+00	
1127	1.120280e-09	1.014742e-07	1.800000e+00	1.800000e+00	
1128	1.121280e-09	1.014742e-07	1.800000e+00	1.800000e+00	
1129	1.122280e-09	1.014742e-07	1.800000e+00	1.800000e+00	
1130	1.123280e-09	1.014742e-07	1.800000e+00	1.800000e+00	
1131	1.124280e-09	1.014742e-07	1.800000e+00	1.800000e+00	
1132	1.125280e-09	1.014742e-07	1.800000e+00	1.800000e+00	
1133	1.126280e-09	1.014742e-07	1.800000e+00	1.800000e+00	
1134	1.127280e-09	1.014742e-07	1.800000e+00	1.800000e+00	
1135	1.128280e-09	1.014742e-07	1.800000e+00	1.800000e+00	
1136	1.129280e-09	1.014742e-07	1.800000e+00	1.800000e+00	
1137	1.130280e-09	1.014742e-07	1.800000e+00	1.800000e+00	
1138	1.131280e-09	1.014742e-07	1.800000e+00	1.800000e+00	
1139	1.132280e-09	1.014742e-07	1.800000e+00	1.800000e+00	
1140	1.133280e-09	1.014742e-07	1.800000e+00	1.800000e+00	
1141	1.134280e-09	1.014742e-07	1.800000e+00	1.800000e+00	
1142	1.135280e-09	1.014742e-07	1.800000e+00	1.800000e+00	
1143	1.136280e-09	1.014742e-07	1.800000e+00	1.800000e+00	
1144	1.137280e-09	1.014742e-07	1.800000e+00	1.800000e+00	
1145	1.138280e-09	1.014742e-07	1.800000e+00	1.800000e+00	
1146	1.139280e-09	1.014742e-07	1.800000e+00	1.800000e+00	
1147	1.140280e-09	1.014742e-07	1.800000e+00	1.800000e+00	
1148	1.141280e-09	1.014742e-07	1.800000e+00	1.800000e+00	
1149	1.142280e-09	1.014742e-07	1.800000e+00	1.800000e+00	
1150	1.143280e-09	1.014742e-07	1.800000e+00	1.800000e+00	
1151	1.144280e-09	1.014742e-07	1.800000e+00	1.800000e+00	
1152	1.145280e-09	1.014742e-07	1.800000e+00	1.800000e+00	
1153	1.146280e-09	1.014742e-07	1.800000e+00	1.800000e+00	
1154	1.147280e-09	1.014742e-07	1.800000e+00	1.800000e+00	
1155	1.148280e-09	1.014742e-07	1.800000e+00	1.800000e+00	
1156	1.149280e-09	1.014742e-07	1.800000e+00	1.800000e+00	

Index   time            v(q)            v(qb)           v(bl)           
--------------------------------------------------------------------------------
1157	1.150280e-09	1.014742e-07	1.800000e+00	1.800000e+00	
1158	1.151280e-09	1.014742e-07	1.800000e+00	1.800000e+00	
1159	1.152280e-09	1.014742e-07	1.800000e+00	1.800000e+00	
1160	1.153280e-09	1.014742e-07	1.800000e+00	1.800000e+00	
1161	1.154280e-09	1.014742e-07	1.800000e+00	1.800000e+00	
1162	1.155280e-09	1.014742e-07	1.800000e+00	1.800000e+00	
1163	1.156280e-09	1.014742e-07	1.800000e+00	1.800000e+00	
1164	1.157280e-09	1.014742e-07	1.800000e+00	1.800000e+00	
1165	1.158280e-09	1.014742e-07	1.800000e+00	1.800000e+00	
1166	1.159280e-09	1.014742e-07	1.800000e+00	1.800000e+00	
1167	1.160280e-09	1.014742e-07	1.800000e+00	1.800000e+00	
1168	1.161280e-09	1.014742e-07	1.800000e+00	1.800000e+00	
1169	1.162280e-09	1.014742e-07	1.800000e+00	1.800000e+00	
1170	1.163280e-09	1.014742e-07	1.800000e+00	1.800000e+00	
1171	1.164280e-09	1.014742e-07	1.800000e+00	1.800000e+00	
1172	1.165280e-09	1.014742e-07	1.800000e+00	1.800000e+00	
1173	1.166280e-09	1.014742e-07	1.800000e+00	1.800000e+00	
1174	1.167280e-09	1.014742e-07	1.800000e+00	1.800000e+00	
1175	1.168280e-09	1.014742e-07	1.800000e+00	1.800000e+00	
1176	1.169280e-09	1.014742e-07	1.800000e+00	1.800000e+00	
1177	1.170280e-09	1.014742e-07	1.800000e+00	1.800000e+00	
1178	1.171280e-09	1.014742e-07	1.800000e+00	1.800000e+00	
1179	1.172280e-09	1.014742e-07	1.800000e+00	1.800000e+00	
1180	1.173280e-09	1.014742e-07	1.800000e+00	1.800000e+00	
1181	1.174280e-09	1.014742e-07	1.800000e+00	1.800000e+00	
1182	1.175280e-09	1.014742e-07	1.800000e+00	1.800000e+00	
1183	1.176280e-09	1.014742e-07	1.800000e+00	1.800000e+00	
1184	1.177280e-09	1.014742e-07	1.800000e+00	1.800000e+00	
1185	1.178280e-09	1.014742e-07	1.800000e+00	1.800000e+00	
1186	1.179280e-09	1.014742e-07	1.800000e+00	1.800000e+00	
1187	1.180280e-09	1.014742e-07	1.800000e+00	1.800000e+00	
1188	1.181280e-09	1.014742e-07	1.800000e+00	1.800000e+00	
1189	1.182280e-09	1.014742e-07	1.800000e+00	1.800000e+00	
1190	1.183280e-09	1.014742e-07	1.800000e+00	1.800000e+00	
1191	1.184280e-09	1.014742e-07	1.800000e+00	1.800000e+00	
1192	1.185280e-09	1.014742e-07	1.800000e+00	1.800000e+00	
1193	1.186280e-09	1.014742e-07	1.800000e+00	1.800000e+00	
1194	1.187280e-09	1.014742e-07	1.800000e+00	1.800000e+00	
1195	1.188280e-09	1.014742e-07	1.800000e+00	1.800000e+00	
1196	1.189280e-09	1.014742e-07	1.800000e+00	1.800000e+00	
1197	1.190280e-09	1.014742e-07	1.800000e+00	1.800000e+00	
1198	1.191280e-09	1.014742e-07	1.800000e+00	1.800000e+00	
1199	1.192280e-09	1.014742e-07	1.800000e+00	1.800000e+00	
1200	1.193280e-09	1.014742e-07	1.800000e+00	1.800000e+00	
1201	1.194280e-09	1.014742e-07	1.800000e+00	1.800000e+00	
1202	1.195280e-09	1.014742e-07	1.800000e+00	1.800000e+00	
1203	1.196280e-09	1.014742e-07	1.800000e+00	1.800000e+00	
1204	1.197280e-09	1.014742e-07	1.800000e+00	1.800000e+00	
1205	1.198280e-09	1.014742e-07	1.800000e+00	1.800000e+00	
1206	1.199280e-09	1.014742e-07	1.800000e+00	1.800000e+00	
1207	1.200280e-09	1.014742e-07	1.800000e+00	1.800000e+00	
1208	1.201280e-09	1.014742e-07	1.800000e+00	1.800000e+00	
1209	1.202280e-09	1.014742e-07	1.800000e+00	1.800000e+00	
1210	1.203280e-09	1.014742e-07	1.800000e+00	1.800000e+00	
1211	1.204280e-09	1.014742e-07	1.800000e+00	1.800000e+00	
1212	1.205280e-09	1.014742e-07	1.800000e+00	1.800000e+00	
1213	1.206280e-09	1.014742e-07	1.800000e+00	1.800000e+00	
1214	1.207280e-09	1.014742e-07	1.800000e+00	1.800000e+00	

Index   time            v(q)            v(qb)           v(bl)           
--------------------------------------------------------------------------------
1215	1.208280e-09	1.014742e-07	1.800000e+00	1.800000e+00	
1216	1.209280e-09	1.014742e-07	1.800000e+00	1.800000e+00	
1217	1.210280e-09	1.014742e-07	1.800000e+00	1.800000e+00	
1218	1.211280e-09	1.014742e-07	1.800000e+00	1.800000e+00	
1219	1.212280e-09	1.014742e-07	1.800000e+00	1.800000e+00	
1220	1.213280e-09	1.014742e-07	1.800000e+00	1.800000e+00	
1221	1.214280e-09	1.014742e-07	1.800000e+00	1.800000e+00	
1222	1.215280e-09	1.014742e-07	1.800000e+00	1.800000e+00	
1223	1.216280e-09	1.014742e-07	1.800000e+00	1.800000e+00	
1224	1.217280e-09	1.014742e-07	1.800000e+00	1.800000e+00	
1225	1.218280e-09	1.014742e-07	1.800000e+00	1.800000e+00	
1226	1.219280e-09	1.014742e-07	1.800000e+00	1.800000e+00	
1227	1.220280e-09	1.014742e-07	1.800000e+00	1.800000e+00	
1228	1.221280e-09	1.014742e-07	1.800000e+00	1.800000e+00	
1229	1.222280e-09	1.014742e-07	1.800000e+00	1.800000e+00	
1230	1.223280e-09	1.014742e-07	1.800000e+00	1.800000e+00	
1231	1.224280e-09	1.014742e-07	1.800000e+00	1.800000e+00	
1232	1.225280e-09	1.014742e-07	1.800000e+00	1.800000e+00	
1233	1.226280e-09	1.014742e-07	1.800000e+00	1.800000e+00	
1234	1.227280e-09	1.014742e-07	1.800000e+00	1.800000e+00	
1235	1.228280e-09	1.014742e-07	1.800000e+00	1.800000e+00	
1236	1.229280e-09	1.014742e-07	1.800000e+00	1.800000e+00	
1237	1.230280e-09	1.014742e-07	1.800000e+00	1.800000e+00	
1238	1.231280e-09	1.014742e-07	1.800000e+00	1.800000e+00	
1239	1.232280e-09	1.014742e-07	1.800000e+00	1.800000e+00	
1240	1.233280e-09	1.014742e-07	1.800000e+00	1.800000e+00	
1241	1.234280e-09	1.014742e-07	1.800000e+00	1.800000e+00	
1242	1.235280e-09	1.014742e-07	1.800000e+00	1.800000e+00	
1243	1.236280e-09	1.014742e-07	1.800000e+00	1.800000e+00	
1244	1.237280e-09	1.014742e-07	1.800000e+00	1.800000e+00	
1245	1.238280e-09	1.014742e-07	1.800000e+00	1.800000e+00	
1246	1.239280e-09	1.014742e-07	1.800000e+00	1.800000e+00	
1247	1.240280e-09	1.014742e-07	1.800000e+00	1.800000e+00	
1248	1.241280e-09	1.014742e-07	1.800000e+00	1.800000e+00	
1249	1.242280e-09	1.014742e-07	1.800000e+00	1.800000e+00	
1250	1.243280e-09	1.014742e-07	1.800000e+00	1.800000e+00	
1251	1.244280e-09	1.014742e-07	1.800000e+00	1.800000e+00	
1252	1.245280e-09	1.014742e-07	1.800000e+00	1.800000e+00	
1253	1.246280e-09	1.014742e-07	1.800000e+00	1.800000e+00	
1254	1.247280e-09	1.014742e-07	1.800000e+00	1.800000e+00	
1255	1.248280e-09	1.014742e-07	1.800000e+00	1.800000e+00	
1256	1.249280e-09	1.014742e-07	1.800000e+00	1.800000e+00	
1257	1.250280e-09	1.014742e-07	1.800000e+00	1.800000e+00	
1258	1.251280e-09	1.014742e-07	1.800000e+00	1.800000e+00	
1259	1.252280e-09	1.014742e-07	1.800000e+00	1.800000e+00	
1260	1.253280e-09	1.014742e-07	1.800000e+00	1.800000e+00	
1261	1.254280e-09	1.014742e-07	1.800000e+00	1.800000e+00	
1262	1.255280e-09	1.014742e-07	1.800000e+00	1.800000e+00	
1263	1.256280e-09	1.014742e-07	1.800000e+00	1.800000e+00	
1264	1.257280e-09	1.014742e-07	1.800000e+00	1.800000e+00	
1265	1.258280e-09	1.014742e-07	1.800000e+00	1.800000e+00	
1266	1.259280e-09	1.014742e-07	1.800000e+00	1.800000e+00	
1267	1.260280e-09	1.014742e-07	1.800000e+00	1.800000e+00	
1268	1.261280e-09	1.014742e-07	1.800000e+00	1.800000e+00	
1269	1.262280e-09	1.014742e-07	1.800000e+00	1.800000e+00	
1270	1.263280e-09	1.014742e-07	1.800000e+00	1.800000e+00	
1271	1.264280e-09	1.014742e-07	1.800000e+00	1.800000e+00	
1272	1.265280e-09	1.014742e-07	1.800000e+00	1.800000e+00	

Index   time            v(q)            v(qb)           v(bl)           
--------------------------------------------------------------------------------
1273	1.266280e-09	1.014742e-07	1.800000e+00	1.800000e+00	
1274	1.267280e-09	1.014742e-07	1.800000e+00	1.800000e+00	
1275	1.268280e-09	1.014742e-07	1.800000e+00	1.800000e+00	
1276	1.269280e-09	1.014742e-07	1.800000e+00	1.800000e+00	
1277	1.270280e-09	1.014742e-07	1.800000e+00	1.800000e+00	
1278	1.271280e-09	1.014742e-07	1.800000e+00	1.800000e+00	
1279	1.272280e-09	1.014742e-07	1.800000e+00	1.800000e+00	
1280	1.273280e-09	1.014742e-07	1.800000e+00	1.800000e+00	
1281	1.274280e-09	1.014742e-07	1.800000e+00	1.800000e+00	
1282	1.275280e-09	1.014742e-07	1.800000e+00	1.800000e+00	
1283	1.276280e-09	1.014742e-07	1.800000e+00	1.800000e+00	
1284	1.277280e-09	1.014742e-07	1.800000e+00	1.800000e+00	
1285	1.278280e-09	1.014742e-07	1.800000e+00	1.800000e+00	
1286	1.279280e-09	1.014742e-07	1.800000e+00	1.800000e+00	
1287	1.280280e-09	1.014742e-07	1.800000e+00	1.800000e+00	
1288	1.281280e-09	1.014742e-07	1.800000e+00	1.800000e+00	
1289	1.282280e-09	1.014742e-07	1.800000e+00	1.800000e+00	
1290	1.283280e-09	1.014742e-07	1.800000e+00	1.800000e+00	
1291	1.284280e-09	1.014742e-07	1.800000e+00	1.800000e+00	
1292	1.285280e-09	1.014742e-07	1.800000e+00	1.800000e+00	
1293	1.286280e-09	1.014742e-07	1.800000e+00	1.800000e+00	
1294	1.287280e-09	1.014742e-07	1.800000e+00	1.800000e+00	
1295	1.288280e-09	1.014742e-07	1.800000e+00	1.800000e+00	
1296	1.289280e-09	1.014742e-07	1.800000e+00	1.800000e+00	
1297	1.290280e-09	1.014742e-07	1.800000e+00	1.800000e+00	
1298	1.291280e-09	1.014742e-07	1.800000e+00	1.800000e+00	
1299	1.292280e-09	1.014742e-07	1.800000e+00	1.800000e+00	
1300	1.293280e-09	1.014742e-07	1.800000e+00	1.800000e+00	
1301	1.294280e-09	1.014742e-07	1.800000e+00	1.800000e+00	
1302	1.295280e-09	1.014742e-07	1.800000e+00	1.800000e+00	
1303	1.296280e-09	1.014742e-07	1.800000e+00	1.800000e+00	
1304	1.297280e-09	1.014742e-07	1.800000e+00	1.800000e+00	
1305	1.298280e-09	1.014742e-07	1.800000e+00	1.800000e+00	
1306	1.299280e-09	1.014742e-07	1.800000e+00	1.800000e+00	
1307	1.300280e-09	1.014742e-07	1.800000e+00	1.800000e+00	
1308	1.301280e-09	1.014742e-07	1.800000e+00	1.800000e+00	
1309	1.302280e-09	1.014742e-07	1.800000e+00	1.800000e+00	
1310	1.303280e-09	1.014742e-07	1.800000e+00	1.800000e+00	
1311	1.304280e-09	1.014742e-07	1.800000e+00	1.800000e+00	
1312	1.305280e-09	1.014742e-07	1.800000e+00	1.800000e+00	
1313	1.306280e-09	1.014742e-07	1.800000e+00	1.800000e+00	
1314	1.307280e-09	1.014742e-07	1.800000e+00	1.800000e+00	
1315	1.308280e-09	1.014742e-07	1.800000e+00	1.800000e+00	
1316	1.309280e-09	1.014742e-07	1.800000e+00	1.800000e+00	
1317	1.310280e-09	1.014742e-07	1.800000e+00	1.800000e+00	
1318	1.311280e-09	1.014742e-07	1.800000e+00	1.800000e+00	
[...]
14704	1.468550e-08	1.014742e-07	1.800000e+00	1.800000e+00	
14705	1.468650e-08	1.014742e-07	1.800000e+00	1.800000e+00	
14706	1.468750e-08	1.014742e-07	1.800000e+00	1.800000e+00	
14707	1.468850e-08	1.014742e-07	1.800000e+00	1.800000e+00	
14708	1.468950e-08	1.014742e-07	1.800000e+00	1.800000e+00	
14709	1.469050e-08	1.014742e-07	1.800000e+00	1.800000e+00	
14710	1.469150e-08	1.014742e-07	1.800000e+00	1.800000e+00	
14711	1.469250e-08	1.014742e-07	1.800000e+00	1.800000e+00	
14712	1.469350e-08	1.014742e-07	1.800000e+00	1.800000e+00	
14713	1.469450e-08	1.014742e-07	1.800000e+00	1.800000e+00	
14714	1.469550e-08	1.014742e-07	1.800000e+00	1.800000e+00	
14715	1.469650e-08	1.014742e-07	1.800000e+00	1.800000e+00	
14716	1.469750e-08	1.014742e-07	1.800000e+00	1.800000e+00	
14717	1.469850e-08	1.014742e-07	1.800000e+00	1.800000e+00	
14718	1.469950e-08	1.014742e-07	1.800000e+00	1.800000e+00	
14719	1.470050e-08	1.014742e-07	1.800000e+00	1.800000e+00	
14720	1.470150e-08	1.014742e-07	1.800000e+00	1.800000e+00	
14721	1.470250e-08	1.014742e-07	1.800000e+00	1.800000e+00	
14722	1.470350e-08	1.014742e-07	1.800000e+00	1.800000e+00	
14723	1.470450e-08	1.014742e-07	1.800000e+00	1.800000e+00	
14724	1.470550e-08	1.014742e-07	1.800000e+00	1.800000e+00	
14725	1.470650e-08	1.014742e-07	1.800000e+00	1.800000e+00	
14726	1.470750e-08	1.014742e-07	1.800000e+00	1.800000e+00	
14727	1.470850e-08	1.014742e-07	1.800000e+00	1.800000e+00	
14728	1.470950e-08	1.014742e-07	1.800000e+00	1.800000e+00	

Index   time            v(q)            v(qb)           v(bl)           
--------------------------------------------------------------------------------
14729	1.471050e-08	1.014742e-07	1.800000e+00	1.800000e+00	
14730	1.471150e-08	1.014742e-07	1.800000e+00	1.800000e+00	
14731	1.471250e-08	1.014742e-07	1.800000e+00	1.800000e+00	
14732	1.471350e-08	1.014742e-07	1.800000e+00	1.800000e+00	
14733	1.471450e-08	1.014742e-07	1.800000e+00	1.800000e+00	
14734	1.471550e-08	1.014742e-07	1.800000e+00	1.800000e+00	
14735	1.471650e-08	1.014742e-07	1.800000e+00	1.800000e+00	
14736	1.471750e-08	1.014742e-07	1.800000e+00	1.800000e+00	
14737	1.471850e-08	1.014742e-07	1.800000e+00	1.800000e+00	
14738	1.471950e-08	1.014742e-07	1.800000e+00	1.800000e+00	
14739	1.472050e-08	1.014742e-07	1.800000e+00	1.800000e+00	
14740	1.472150e-08	1.014742e-07	1.800000e+00	1.800000e+00	
14741	1.472250e-08	1.014742e-07	1.800000e+00	1.800000e+00	
14742	1.472350e-08	1.014742e-07	1.800000e+00	1.800000e+00	
14743	1.472450e-08	1.014742e-07	1.800000e+00	1.800000e+00	
14744	1.472550e-08	1.014742e-07	1.800000e+00	1.800000e+00	
14745	1.472650e-08	1.014742e-07	1.800000e+00	1.800000e+00	
14746	1.472750e-08	1.014742e-07	1.800000e+00	1.800000e+00	
14747	1.472850e-08	1.014742e-07	1.800000e+00	1.800000e+00	
14748	1.472950e-08	1.014742e-07	1.800000e+00	1.800000e+00	
14749	1.473050e-08	1.014742e-07	1.800000e+00	1.800000e+00	
14750	1.473150e-08	1.014742e-07	1.800000e+00	1.800000e+00	
14751	1.473250e-08	1.014742e-07	1.800000e+00	1.800000e+00	
14752	1.473350e-08	1.014742e-07	1.800000e+00	1.800000e+00	
14753	1.473450e-08	1.014742e-07	1.800000e+00	1.800000e+00	
14754	1.473550e-08	1.014742e-07	1.800000e+00	1.800000e+00	
14755	1.473650e-08	1.014742e-07	1.800000e+00	1.800000e+00	
14756	1.473750e-08	1.014742e-07	1.800000e+00	1.800000e+00	
14757	1.473850e-08	1.014742e-07	1.800000e+00	1.800000e+00	
14758	1.473950e-08	1.014742e-07	1.800000e+00	1.800000e+00	
14759	1.474050e-08	1.014742e-07	1.800000e+00	1.800000e+00	
14760	1.474150e-08	1.014742e-07	1.800000e+00	1.800000e+00	
14761	1.474250e-08	1.014742e-07	1.800000e+00	1.800000e+00	
14762	1.474350e-08	1.014742e-07	1.800000e+00	1.800000e+00	
14763	1.474450e-08	1.014742e-07	1.800000e+00	1.800000e+00	
14764	1.474550e-08	1.014742e-07	1.800000e+00	1.800000e+00	
14765	1.474650e-08	1.014742e-07	1.800000e+00	1.800000e+00	
14766	1.474750e-08	1.014742e-07	1.800000e+00	1.800000e+00	
14767	1.474850e-08	1.014742e-07	1.800000e+00	1.800000e+00	
14768	1.474950e-08	1.014742e-07	1.800000e+00	1.800000e+00	
14769	1.475050e-08	1.014742e-07	1.800000e+00	1.800000e+00	
14770	1.475150e-08	1.014742e-07	1.800000e+00	1.800000e+00	
14771	1.475250e-08	1.014742e-07	1.800000e+00	1.800000e+00	
14772	1.475350e-08	1.014742e-07	1.800000e+00	1.800000e+00	
14773	1.475450e-08	1.014742e-07	1.800000e+00	1.800000e+00	
14774	1.475550e-08	1.014742e-07	1.800000e+00	1.800000e+00	
14775	1.475650e-08	1.014742e-07	1.800000e+00	1.800000e+00	
14776	1.475750e-08	1.014742e-07	1.800000e+00	1.800000e+00	
14777	1.475850e-08	1.014742e-07	1.800000e+00	1.800000e+00	
14778	1.475950e-08	1.014742e-07	1.800000e+00	1.800000e+00	
14779	1.476050e-08	1.014742e-07	1.800000e+00	1.800000e+00	
14780	1.476150e-08	1.014742e-07	1.800000e+00	1.800000e+00	
14781	1.476250e-08	1.014742e-07	1.800000e+00	1.800000e+00	
14782	1.476350e-08	1.014742e-07	1.800000e+00	1.800000e+00	
14783	1.476450e-08	1.014742e-07	1.800000e+00	1.800000e+00	
14784	1.476550e-08	1.014742e-07	1.800000e+00	1.800000e+00	
14785	1.476650e-08	1.014742e-07	1.800000e+00	1.800000e+00	
14786	1.476750e-08	1.014742e-07	1.800000e+00	1.800000e+00	

Index   time            v(q)            v(qb)           v(bl)           
--------------------------------------------------------------------------------
14787	1.476850e-08	1.014742e-07	1.800000e+00	1.800000e+00	
14788	1.476950e-08	1.014742e-07	1.800000e+00	1.800000e+00	
14789	1.477050e-08	1.014742e-07	1.800000e+00	1.800000e+00	
14790	1.477150e-08	1.014742e-07	1.800000e+00	1.800000e+00	
14791	1.477250e-08	1.014742e-07	1.800000e+00	1.800000e+00	
14792	1.477350e-08	1.014742e-07	1.800000e+00	1.800000e+00	
14793	1.477450e-08	1.014742e-07	1.800000e+00	1.800000e+00	
14794	1.477550e-08	1.014742e-07	1.800000e+00	1.800000e+00	
14795	1.477650e-08	1.014742e-07	1.800000e+00	1.800000e+00	
14796	1.477750e-08	1.014742e-07	1.800000e+00	1.800000e+00	
14797	1.477850e-08	1.014742e-07	1.800000e+00	1.800000e+00	
14798	1.477950e-08	1.014742e-07	1.800000e+00	1.800000e+00	
14799	1.478050e-08	1.014742e-07	1.800000e+00	1.800000e+00	
14800	1.478150e-08	1.014742e-07	1.800000e+00	1.800000e+00	
14801	1.478250e-08	1.014742e-07	1.800000e+00	1.800000e+00	
14802	1.478350e-08	1.014742e-07	1.800000e+00	1.800000e+00	
14803	1.478450e-08	1.014742e-07	1.800000e+00	1.800000e+00	
14804	1.478550e-08	1.014742e-07	1.800000e+00	1.800000e+00	
14805	1.478650e-08	1.014742e-07	1.800000e+00	1.800000e+00	
14806	1.478750e-08	1.014742e-07	1.800000e+00	1.800000e+00	
14807	1.478850e-08	1.014742e-07	1.800000e+00	1.800000e+00	
14808	1.478950e-08	1.014742e-07	1.800000e+00	1.800000e+00	
14809	1.479050e-08	1.014742e-07	1.800000e+00	1.800000e+00	
14810	1.479150e-08	1.014742e-07	1.800000e+00	1.800000e+00	
14811	1.479250e-08	1.014742e-07	1.800000e+00	1.800000e+00	
14812	1.479350e-08	1.014742e-07	1.800000e+00	1.800000e+00	
14813	1.479450e-08	1.014742e-07	1.800000e+00	1.800000e+00	
14814	1.479550e-08	1.014742e-07	1.800000e+00	1.800000e+00	
14815	1.479650e-08	1.014742e-07	1.800000e+00	1.800000e+00	
14816	1.479750e-08	1.014742e-07	1.800000e+00	1.800000e+00	
14817	1.479850e-08	1.014742e-07	1.800000e+00	1.800000e+00	
14818	1.479950e-08	1.014742e-07	1.800000e+00	1.800000e+00	
14819	1.480050e-08	1.014742e-07	1.800000e+00	1.800000e+00	
14820	1.480150e-08	1.014742e-07	1.800000e+00	1.800000e+00	
14821	1.480250e-08	1.014742e-07	1.800000e+00	1.800000e+00	
14822	1.480350e-08	1.014742e-07	1.800000e+00	1.800000e+00	
14823	1.480450e-08	1.014742e-07	1.800000e+00	1.800000e+00	
14824	1.480550e-08	1.014742e-07	1.800000e+00	1.800000e+00	
14825	1.480650e-08	1.014742e-07	1.800000e+00	1.800000e+00	
14826	1.480750e-08	1.014742e-07	1.800000e+00	1.800000e+00	
14827	1.480850e-08	1.014742e-07	1.800000e+00	1.800000e+00	
14828	1.480950e-08	1.014742e-07	1.800000e+00	1.800000e+00	
14829	1.481050e-08	1.014742e-07	1.800000e+00	1.800000e+00	
14830	1.481150e-08	1.014742e-07	1.800000e+00	1.800000e+00	
14831	1.481250e-08	1.014742e-07	1.800000e+00	1.800000e+00	
14832	1.481350e-08	1.014742e-07	1.800000e+00	1.800000e+00	
14833	1.481450e-08	1.014742e-07	1.800000e+00	1.800000e+00	
14834	1.481550e-08	1.014742e-07	1.800000e+00	1.800000e+00	
14835	1.481650e-08	1.014742e-07	1.800000e+00	1.800000e+00	
14836	1.481750e-08	1.014742e-07	1.800000e+00	1.800000e+00	
14837	1.481850e-08	1.014742e-07	1.800000e+00	1.800000e+00	
14838	1.481950e-08	1.014742e-07	1.800000e+00	1.800000e+00	
14839	1.482050e-08	1.014742e-07	1.800000e+00	1.800000e+00	
14840	1.482150e-08	1.014742e-07	1.800000e+00	1.800000e+00	
14841	1.482250e-08	1.014742e-07	1.800000e+00	1.800000e+00	
14842	1.482350e-08	1.014742e-07	1.800000e+00	1.800000e+00	
14843	1.482450e-08	1.014742e-07	1.800000e+00	1.800000e+00	
14844	1.482550e-08	1.014742e-07	1.800000e+00	1.800000e+00	

Index   time            v(q)            v(qb)           v(bl)           
--------------------------------------------------------------------------------
14845	1.482650e-08	1.014742e-07	1.800000e+00	1.800000e+00	
14846	1.482750e-08	1.014742e-07	1.800000e+00	1.800000e+00	
14847	1.482850e-08	1.014742e-07	1.800000e+00	1.800000e+00	
14848	1.482950e-08	1.014742e-07	1.800000e+00	1.800000e+00	
14849	1.483050e-08	1.014742e-07	1.800000e+00	1.800000e+00	
14850	1.483150e-08	1.014742e-07	1.800000e+00	1.800000e+00	
14851	1.483250e-08	1.014742e-07	1.800000e+00	1.800000e+00	
14852	1.483350e-08	1.014742e-07	1.800000e+00	1.800000e+00	
14853	1.483450e-08	1.014742e-07	1.800000e+00	1.800000e+00	
14854	1.483550e-08	1.014742e-07	1.800000e+00	1.800000e+00	
14855	1.483650e-08	1.014742e-07	1.800000e+00	1.800000e+00	
14856	1.483750e-08	1.014742e-07	1.800000e+00	1.800000e+00	
14857	1.483850e-08	1.014742e-07	1.800000e+00	1.800000e+00	
14858	1.483950e-08	1.014742e-07	1.800000e+00	1.800000e+00	
14859	1.484050e-08	1.014742e-07	1.800000e+00	1.800000e+00	
14860	1.484150e-08	1.014742e-07	1.800000e+00	1.800000e+00	
14861	1.484250e-08	1.014742e-07	1.800000e+00	1.800000e+00	
14862	1.484350e-08	1.014742e-07	1.800000e+00	1.800000e+00	
14863	1.484450e-08	1.014742e-07	1.800000e+00	1.800000e+00	
14864	1.484550e-08	1.014742e-07	1.800000e+00	1.800000e+00	
14865	1.484650e-08	1.014742e-07	1.800000e+00	1.800000e+00	
14866	1.484750e-08	1.014742e-07	1.800000e+00	1.800000e+00	
14867	1.484850e-08	1.014742e-07	1.800000e+00	1.800000e+00	
14868	1.484950e-08	1.014742e-07	1.800000e+00	1.800000e+00	
14869	1.485050e-08	1.014742e-07	1.800000e+00	1.800000e+00	
14870	1.485150e-08	1.014742e-07	1.800000e+00	1.800000e+00	
14871	1.485250e-08	1.014742e-07	1.800000e+00	1.800000e+00	
14872	1.485350e-08	1.014742e-07	1.800000e+00	1.800000e+00	
14873	1.485450e-08	1.014742e-07	1.800000e+00	1.800000e+00	
14874	1.485550e-08	1.014742e-07	1.800000e+00	1.800000e+00	
14875	1.485650e-08	1.014742e-07	1.800000e+00	1.800000e+00	
14876	1.485750e-08	1.014742e-07	1.800000e+00	1.800000e+00	
14877	1.485850e-08	1.014742e-07	1.800000e+00	1.800000e+00	
14878	1.485950e-08	1.014742e-07	1.800000e+00	1.800000e+00	
14879	1.486050e-08	1.014742e-07	1.800000e+00	1.800000e+00	
14880	1.486150e-08	1.014742e-07	1.800000e+00	1.800000e+00	
14881	1.486250e-08	1.014742e-07	1.800000e+00	1.800000e+00	
14882	1.486350e-08	1.014742e-07	1.800000e+00	1.800000e+00	
14883	1.486450e-08	1.014742e-07	1.800000e+00	1.800000e+00	
14884	1.486550e-08	1.014742e-07	1.800000e+00	1.800000e+00	
14885	1.486650e-08	1.014742e-07	1.800000e+00	1.800000e+00	
14886	1.486750e-08	1.014742e-07	1.800000e+00	1.800000e+00	
14887	1.486850e-08	1.014742e-07	1.800000e+00	1.800000e+00	
14888	1.486950e-08	1.014742e-07	1.800000e+00	1.800000e+00	
14889	1.487050e-08	1.014742e-07	1.800000e+00	1.800000e+00	
14890	1.487150e-08	1.014742e-07	1.800000e+00	1.800000e+00	
14891	1.487250e-08	1.014742e-07	1.800000e+00	1.800000e+00	
14892	1.487350e-08	1.014742e-07	1.800000e+00	1.800000e+00	
14893	1.487450e-08	1.014742e-07	1.800000e+00	1.800000e+00	
14894	1.487550e-08	1.014742e-07	1.800000e+00	1.800000e+00	
14895	1.487650e-08	1.014742e-07	1.800000e+00	1.800000e+00	
14896	1.487750e-08	1.014742e-07	1.800000e+00	1.800000e+00	
14897	1.487850e-08	1.014742e-07	1.800000e+00	1.800000e+00	
14898	1.487950e-08	1.014742e-07	1.800000e+00	1.800000e+00	
14899	1.488050e-08	1.014742e-07	1.800000e+00	1.800000e+00	
14900	1.488150e-08	1.014742e-07	1.800000e+00	1.800000e+00	
14901	1.488250e-08	1.014742e-07	1.800000e+00	1.800000e+00	
14902	1.488350e-08	1.014742e-07	1.800000e+00	1.800000e+00	

Index   time            v(q)            v(qb)           v(bl)           
--------------------------------------------------------------------------------
14903	1.488450e-08	1.014742e-07	1.800000e+00	1.800000e+00	
14904	1.488550e-08	1.014742e-07	1.800000e+00	1.800000e+00	
14905	1.488650e-08	1.014742e-07	1.800000e+00	1.800000e+00	
14906	1.488750e-08	1.014742e-07	1.800000e+00	1.800000e+00	
14907	1.488850e-08	1.014742e-07	1.800000e+00	1.800000e+00	
14908	1.488950e-08	1.014742e-07	1.800000e+00	1.800000e+00	
14909	1.489050e-08	1.014742e-07	1.800000e+00	1.800000e+00	
14910	1.489150e-08	1.014742e-07	1.800000e+00	1.800000e+00	
14911	1.489250e-08	1.014742e-07	1.800000e+00	1.800000e+00	
14912	1.489350e-08	1.014742e-07	1.800000e+00	1.800000e+00	
14913	1.489450e-08	1.014742e-07	1.800000e+00	1.800000e+00	
14914	1.489550e-08	1.014742e-07	1.800000e+00	1.800000e+00	
14915	1.489650e-08	1.014742e-07	1.800000e+00	1.800000e+00	
14916	1.489750e-08	1.014742e-07	1.800000e+00	1.800000e+00	
14917	1.489850e-08	1.014742e-07	1.800000e+00	1.800000e+00	
14918	1.489950e-08	1.014742e-07	1.800000e+00	1.800000e+00	
14919	1.490050e-08	1.014742e-07	1.800000e+00	1.800000e+00	
14920	1.490150e-08	1.014742e-07	1.800000e+00	1.800000e+00	
14921	1.490250e-08	1.014742e-07	1.800000e+00	1.800000e+00	
14922	1.490350e-08	1.014742e-07	1.800000e+00	1.800000e+00	
14923	1.490450e-08	1.014742e-07	1.800000e+00	1.800000e+00	
14924	1.490550e-08	1.014742e-07	1.800000e+00	1.800000e+00	
14925	1.490650e-08	1.014742e-07	1.800000e+00	1.800000e+00	
14926	1.490750e-08	1.014742e-07	1.800000e+00	1.800000e+00	
14927	1.490850e-08	1.014742e-07	1.800000e+00	1.800000e+00	
14928	1.490950e-08	1.014742e-07	1.800000e+00	1.800000e+00	
14929	1.491050e-08	1.014742e-07	1.800000e+00	1.800000e+00	
14930	1.491150e-08	1.014742e-07	1.800000e+00	1.800000e+00	
14931	1.491250e-08	1.014742e-07	1.800000e+00	1.800000e+00	
14932	1.491350e-08	1.014742e-07	1.800000e+00	1.800000e+00	
14933	1.491450e-08	1.014742e-07	1.800000e+00	1.800000e+00	
14934	1.491550e-08	1.014742e-07	1.800000e+00	1.800000e+00	
14935	1.491650e-08	1.014742e-07	1.800000e+00	1.800000e+00	
14936	1.491750e-08	1.014742e-07	1.800000e+00	1.800000e+00	
14937	1.491850e-08	1.014742e-07	1.800000e+00	1.800000e+00	
14938	1.491950e-08	1.014742e-07	1.800000e+00	1.800000e+00	
14939	1.492050e-08	1.014742e-07	1.800000e+00	1.800000e+00	
14940	1.492150e-08	1.014742e-07	1.800000e+00	1.800000e+00	
14941	1.492250e-08	1.014742e-07	1.800000e+00	1.800000e+00	
14942	1.492350e-08	1.014742e-07	1.800000e+00	1.800000e+00	
14943	1.492450e-08	1.014742e-07	1.800000e+00	1.800000e+00	
14944	1.492550e-08	1.014742e-07	1.800000e+00	1.800000e+00	
14945	1.492650e-08	1.014742e-07	1.800000e+00	1.800000e+00	
14946	1.492750e-08	1.014742e-07	1.800000e+00	1.800000e+00	
14947	1.492850e-08	1.014742e-07	1.800000e+00	1.800000e+00	
14948	1.492950e-08	1.014742e-07	1.800000e+00	1.800000e+00	
14949	1.493050e-08	1.014742e-07	1.800000e+00	1.800000e+00	
14950	1.493150e-08	1.014742e-07	1.800000e+00	1.800000e+00	
14951	1.493250e-08	1.014742e-07	1.800000e+00	1.800000e+00	
14952	1.493350e-08	1.014742e-07	1.800000e+00	1.800000e+00	
14953	1.493450e-08	1.014742e-07	1.800000e+00	1.800000e+00	
14954	1.493550e-08	1.014742e-07	1.800000e+00	1.800000e+00	
14955	1.493650e-08	1.014742e-07	1.800000e+00	1.800000e+00	
14956	1.493750e-08	1.014742e-07	1.800000e+00	1.800000e+00	
14957	1.493850e-08	1.014742e-07	1.800000e+00	1.800000e+00	
14958	1.493950e-08	1.014742e-07	1.800000e+00	1.800000e+00	
14959	1.494050e-08	1.014742e-07	1.800000e+00	1.800000e+00	
14960	1.494150e-08	1.014742e-07	1.800000e+00	1.800000e+00	

Index   time            v(q)            v(qb)           v(bl)           
--------------------------------------------------------------------------------
14961	1.494250e-08	1.014742e-07	1.800000e+00	1.800000e+00	
14962	1.494350e-08	1.014742e-07	1.800000e+00	1.800000e+00	
14963	1.494450e-08	1.014742e-07	1.800000e+00	1.800000e+00	
14964	1.494550e-08	1.014742e-07	1.800000e+00	1.800000e+00	
14965	1.494650e-08	1.014742e-07	1.800000e+00	1.800000e+00	
14966	1.494750e-08	1.014742e-07	1.800000e+00	1.800000e+00	
14967	1.494850e-08	1.014742e-07	1.800000e+00	1.800000e+00	
14968	1.494950e-08	1.014742e-07	1.800000e+00	1.800000e+00	
14969	1.495050e-08	1.014742e-07	1.800000e+00	1.800000e+00	
14970	1.495150e-08	1.014742e-07	1.800000e+00	1.800000e+00	
14971	1.495250e-08	1.014742e-07	1.800000e+00	1.800000e+00	
14972	1.495350e-08	1.014742e-07	1.800000e+00	1.800000e+00	
14973	1.495450e-08	1.014742e-07	1.800000e+00	1.800000e+00	
14974	1.495550e-08	1.014742e-07	1.800000e+00	1.800000e+00	
14975	1.495650e-08	1.014742e-07	1.800000e+00	1.800000e+00	
14976	1.495750e-08	1.014742e-07	1.800000e+00	1.800000e+00	
14977	1.495850e-08	1.014742e-07	1.800000e+00	1.800000e+00	
14978	1.495950e-08	1.014742e-07	1.800000e+00	1.800000e+00	
14979	1.496050e-08	1.014742e-07	1.800000e+00	1.800000e+00	
14980	1.496150e-08	1.014742e-07	1.800000e+00	1.800000e+00	
14981	1.496250e-08	1.014742e-07	1.800000e+00	1.800000e+00	
14982	1.496350e-08	1.014742e-07	1.800000e+00	1.800000e+00	
14983	1.496450e-08	1.014742e-07	1.800000e+00	1.800000e+00	
14984	1.496550e-08	1.014742e-07	1.800000e+00	1.800000e+00	
14985	1.496650e-08	1.014742e-07	1.800000e+00	1.800000e+00	
14986	1.496750e-08	1.014742e-07	1.800000e+00	1.800000e+00	
14987	1.496850e-08	1.014742e-07	1.800000e+00	1.800000e+00	
14988	1.496950e-08	1.014742e-07	1.800000e+00	1.800000e+00	
14989	1.497050e-08	1.014742e-07	1.800000e+00	1.800000e+00	
14990	1.497150e-08	1.014742e-07	1.800000e+00	1.800000e+00	
14991	1.497250e-08	1.014742e-07	1.800000e+00	1.800000e+00	
14992	1.497350e-08	1.014742e-07	1.800000e+00	1.800000e+00	
14993	1.497450e-08	1.014742e-07	1.800000e+00	1.800000e+00	
14994	1.497550e-08	1.014742e-07	1.800000e+00	1.800000e+00	
14995	1.497650e-08	1.014742e-07	1.800000e+00	1.800000e+00	
14996	1.497750e-08	1.014742e-07	1.800000e+00	1.800000e+00	
14997	1.497850e-08	1.014742e-07	1.800000e+00	1.800000e+00	
14998	1.497950e-08	1.014742e-07	1.800000e+00	1.800000e+00	
14999	1.498050e-08	1.014742e-07	1.800000e+00	1.800000e+00	
15000	1.498150e-08	1.014742e-07	1.800000e+00	1.800000e+00	
15001	1.498250e-08	1.014742e-07	1.800000e+00	1.800000e+00	
15002	1.498350e-08	1.014742e-07	1.800000e+00	1.800000e+00	
15003	1.498450e-08	1.014742e-07	1.800000e+00	1.800000e+00	
15004	1.498550e-08	1.014742e-07	1.800000e+00	1.800000e+00	
15005	1.498650e-08	1.014742e-07	1.800000e+00	1.800000e+00	
15006	1.498750e-08	1.014742e-07	1.800000e+00	1.800000e+00	
15007	1.498850e-08	1.014742e-07	1.800000e+00	1.800000e+00	
15008	1.498950e-08	1.014742e-07	1.800000e+00	1.800000e+00	
15009	1.499050e-08	1.014742e-07	1.800000e+00	1.800000e+00	
15010	1.499150e-08	1.014742e-07	1.800000e+00	1.800000e+00	
15011	1.499250e-08	1.014742e-07	1.800000e+00	1.800000e+00	
15012	1.499350e-08	1.014742e-07	1.800000e+00	1.800000e+00	
15013	1.499450e-08	1.014742e-07	1.800000e+00	1.800000e+00	
15014	1.499550e-08	1.014742e-07	1.800000e+00	1.800000e+00	
15015	1.499650e-08	1.014742e-07	1.800000e+00	1.800000e+00	
15016	1.499750e-08	1.014742e-07	1.800000e+00	1.800000e+00	
15017	1.499850e-08	1.014742e-07	1.800000e+00	1.800000e+00	
15018	1.499950e-08	1.014742e-07	1.800000e+00	1.800000e+00	

Index   time            v(q)            v(qb)           v(bl)           
--------------------------------------------------------------------------------
15019	1.500000e-08	1.014742e-07	1.800000e+00	1.800000e+00	


Total analysis time (seconds) = 0.141

Total elapsed time (seconds) = 8.120 

Total DRAM available = 15700.180 MB.
DRAM currently available = 12957.121 MB.
Maximum ngspice program size =  681.957 MB.
Current ngspice program size =  666.184 MB.

Shared ngspice pages =   10.375 MB.
Text (code) pages =    5.316 MB.
Stack = 0 bytes.
Library pages =  664.008 MB.

